31
11/21/2023 17:07, XYZ structure generated by mol3D Class, molSimplify
Co     -0.023560    0.058335    -0.075185
N     0.545583    2.195974    -0.057259
N     1.906886    2.203385    -0.546038
N     2.597871    1.206869    0.253698
N     2.170002    -0.057210    -0.304658
H     0.467739    2.670139    0.850701
H     -0.006262    2.731645    -0.730433
H     2.350332    3.093641    -0.298660
H     3.591211    1.350138    0.042910
H     2.560380    -0.202856    -1.242821
H     2.521728    -0.793764    0.311411
N     -0.418845    -2.119800    0.169643
N     -0.656522    -2.189959    1.592095
N     0.528207    -1.610658    2.202745
N     0.343571    -0.179580    2.113897
H     0.275960    -2.811100    -0.135012
H     -1.305572    -2.309668    -0.303762
H     -0.656965    -3.169872    1.892401
H     0.490482    -1.899837    3.185164
H     -0.358070    0.155809    2.783944
H     1.241399    0.258782    2.330768
N     -2.229082    0.214048    0.064681
N     -2.631021    -0.361317    -1.200875
N     -1.989060    0.476925    -2.199981
N     -0.604655    0.050937    -2.226319
H     -2.668845    1.129227    0.215259
H     -2.536619    -0.424134    0.802398
H     -3.634907    -0.205347    -1.340171
H     -2.437331    0.223401    -3.085902
H     -0.496422    -0.848750    -2.710062
H     -0.095706    0.754168    -2.765050
