25
11/21/2023 17:07, XYZ structure generated by mol3D Class, molSimplify
Co     -0.086792    -0.065413    0.040570
O     0.039116    1.934236    0.353792
C     1.319996    2.505238    0.185815
C     2.322554    1.688579    -0.114698
O     2.020363    0.349465    -0.353666
H     -0.672533    2.559140    0.123509
H     1.401845    3.569247    0.364319
H     3.354550    2.001308    -0.215692
H     2.801000    -0.227006    -0.285396
O     0.219887    -2.068128    0.144867
C     0.271912    -2.559059    1.462234
C     0.219125    -1.659372    2.433741
O     -0.018375    -0.329952    2.047391
H     -0.126688    -2.726956    -0.484563
H     0.394119    -3.627042    1.587084
H     0.298066    -1.860752    3.494162
H     0.337471    0.323616    2.676245
O     -2.266715    -0.112834    -0.206021
C     -2.630256    -0.058019    -1.550584
C     -1.658932    0.043820    -2.449147
O     -0.330497    -0.013617    -1.982156
H     -3.000150    -0.407774    0.360657
H     -3.685739    -0.079760    -1.791247
H     -1.794832    0.116274    -3.520008
H     0.289165    0.465667    -2.560455
