49
11/21/2023 17:07, XYZ structure generated by mol3D Class, molSimplify
Co     -0.000039    5.920653    4.080098
N     -0.788378    4.114949    2.981865
N     -2.058560    3.783872    3.034487
N     -2.183967    2.668290    2.312086
H     -3.098501    2.240827    2.222605
C     -0.105563    3.206753    2.228511
C     -1.003234    2.261988    1.787387
H     0.955023    3.295669    2.059525
H     -0.901593    1.379432    1.174672
N     1.552457    6.237119    2.541099
N     2.364482    5.268128    2.186164
N     3.188600    5.791978    1.278633
H     3.905437    5.203471    0.869598
C     1.861381    7.378539    1.862638
C     2.924278    7.098621    1.035790
H     1.312203    8.293851    2.011253
H     3.485234    7.694065    0.331947
N     -1.386173    7.218514    3.015613
N     -1.085877    8.468034    2.743483
N     -2.149575    8.971642    2.118463
H     -2.126861    9.938494    1.814537
C     -2.640599    6.928113    2.568777
C     -3.147794    8.064227    1.983239
H     -3.069145    5.947815    2.702948
H     -4.089375    8.288652    1.506073
N     0.788330    7.726449    5.178415
N     2.058488    8.057566    5.125540
N     2.183988    9.173039    5.848096
H     3.098521    9.600537    5.937417
C     0.105598    8.634442    5.932078
C     1.003344    9.579166    6.373138
H     -0.954952    8.545460    6.101252
H     0.901807    10.461611    6.986036
N     -1.552544    5.604177    5.619049
N     -2.364643    6.573165    5.973813
N     -3.188848    6.049305    6.881254
H     -3.905756    6.637828    7.290141
C     -1.861492    4.462759    6.297511
C     -2.924507    4.742683    7.124202
H     -1.312228    3.547475    6.149035
H     -3.485530    4.147256    7.828006
N     1.386107    4.622866    5.144598
N     1.085808    3.373471    5.417286
N     2.149635    2.869966    6.042167
H     2.126969    1.903237    6.346487
C     2.640700    4.913298    5.590942
C     3.147972    3.777349    6.176749
H     3.069272    5.893524    5.456332
H     4.089679    3.553015    6.653713
