37
11/21/2023 17:07, XYZ structure generated by mol3D Class, molSimplify
Co     -0.017574    -0.137151    -0.111050
P     2.288778    -0.553328    -0.421713
H     2.764774    -1.382535    -1.460613
C     3.386278    -0.937837    0.836759
H     3.231971    -0.514286    1.830739
O     4.473213    -1.658007    0.632936
H     5.058831    -1.679421    1.413022
P     -2.323912    0.278908    0.199337
H     -2.799839    1.107975    1.238390
C     -3.420994    0.664294    -1.059256
H     -3.266671    0.241079    -2.053378
O     -4.507735    1.384727    -0.855375
H     -5.093250    1.406519    -1.635532
P     0.306706    2.165595    -0.535689
H     -0.757354    3.032807    -0.868402
C     1.548093    2.817856    -1.521249
H     2.521015    2.325715    -1.565865
O     1.409135    3.964520    -2.160994
H     2.244500    4.275327    -2.557567
P     -0.341749    -2.439788    0.313708
H     0.722375    -3.306870    0.646550
C     -1.583371    -3.092277    1.298803
H     -2.556436    -2.600408    1.343359
O     -1.444371    -4.238971    1.938475
H     -2.279775    -4.549908    2.334861
P     0.353656    0.292557    2.562360
H     -0.198618    -0.602548    3.516287
C     0.112065    1.747931    3.429035
H     0.409607    2.695718    2.974654
O     -0.384932    1.803031    4.657339
H     -0.378259    2.708887    5.017117
P     -0.388490    -0.566726    -2.784738
H     0.163940    0.328465    -3.738502
C     -0.146618    -2.022125    -3.651300
H     -0.444236    -2.969921    -3.196986
O     0.350723    -2.077255    -4.879465
H     0.344163    -2.983124    -5.239210
