97
11/21/2023 17:07, XYZ structure generated by mol3D Class, molSimplify
Co     -0.394256    0.221794    -0.072425
S     -0.574250    2.927060    0.290642
C     0.846885    4.100007    0.145064
C     0.363356    5.552143    0.061217
C     -0.431081    5.999137    1.298156
C     -1.687779    5.153584    1.551003
C     -1.389375    3.667914    1.775473
H     1.393301    3.802337    -0.754086
H     1.505244    3.959257    1.009815
H     1.248390    6.189294    -0.059896
H     -0.244712    5.680246    -0.843044
H     0.221255    5.961667    2.182515
H     -0.722136    7.047681    1.176693
H     -2.208083    5.522826    2.443754
H     -2.386647    5.257207    0.711507
H     -2.301715    3.087480    1.930550
H     -0.737102    3.527238    2.644615
S     2.127250    0.534817    -0.600443
C     3.290111    1.274861    0.634008
C     4.098941    0.255407    1.438570
C     4.916687    -0.705537    0.566019
C     4.024184    -1.582130    -0.322733
C     3.204327    -0.781005    -1.335164
H     2.667653    1.902851    1.275202
H     3.953907    1.932682    0.063359
H     4.766924    0.823159    2.098269
H     3.431382    -0.327364    2.086482
H     5.617254    -0.134589    -0.058420
H     5.527665    -1.346638    1.209556
H     4.642511    -2.285524    -0.893936
H     3.355915    -2.185852    0.305595
H     2.532266    -1.419931    -1.912822
H     3.862635    -0.263908    -2.041632
S     -0.826314    -2.340034    -0.372565
C     0.539725    -3.547341    -0.679671
C     0.014163    -4.986984    -0.708018
C     -1.031210    -5.232898    -1.806558
C     -2.276235    -4.343977    -1.669080
C     -1.956545    -2.847471    -1.743550
H     1.255515    -3.398443    0.133305
H     1.031501    -3.290836    -1.624309
H     0.875491    -5.648366    -0.863461
H     -0.405282    -5.239948    0.273789
H     -0.571987    -5.067416    -2.791665
H     -1.335354    -6.284300    -1.782219
H     -2.982985    -4.571702    -2.476693
H     -2.791931    -4.560127    -0.725179
H     -2.853580    -2.232889    -1.633972
H     -1.489352    -2.595400    -2.701198
S     -2.961391    0.563982    0.456511
C     -3.817808    -0.859049    1.267519
C     -5.290665    -0.529301    1.531758
C     -6.086411    -0.228350    0.253600
C     -5.540930    0.974668    -0.530159
C     -4.089239    0.796921    -0.989802
H     -3.269335    -1.037138    2.195880
H     -3.715436    -1.743426    0.630556
H     -5.730622    -1.391474    2.048215
H     -5.353568    0.319210    2.224282
H     -6.091193    -1.116213    -0.395046
H     -7.131304    -0.037332    0.519254
H     -6.149400    1.138204    -1.428124
H     -5.620798    1.886034    0.075361
H     -3.720363    1.684432    -1.510228
H     -3.980289    -0.060128    -1.661952
S     -0.318169    -0.224531    2.451561
C     0.773450    0.822788    3.508399
C     0.559921    0.497995    4.991294
C     0.915903    -0.954727    5.343272
C     0.092068    -1.992259    4.565109
C     0.245245    -1.882053    3.043142
H     0.518995    1.857587    3.270369
H     1.811573    0.640862    3.215452
H     1.189460    1.183248    5.572578
H     -0.480097    0.713325    5.264986
H     1.986069    -1.123295    5.156115
H     0.764458    -1.111308    6.416256
H     0.404930    -3.003511    4.853278
H     -0.969753    -1.904271    4.826198
H     -0.378073    -2.610726    2.519367
H     1.286465    -2.024056    2.732477
S     -0.886443    0.640608    -2.567641
C     0.267337    -0.256402    -3.698308
C     -0.024373    0.080501    -5.166144
C     0.174600    1.568525    -5.487952
C     -0.733374    2.489032    -4.660068
C     -0.518710    2.356766    -3.148397
H     0.130652    -1.321005    -3.491532
H     1.290192    0.025712    -3.429710
H     0.651439    -0.526096    -5.781818
H     -1.046044    -0.229570    -5.417503
H     1.226079    1.839017    -5.316296
H     -0.017373    1.735828    -6.552764
H     -0.539761    3.535932    -4.924384
H     -1.786597    2.293563    -4.896264
H     -1.184981    3.009739    -2.581468
H     0.515091    2.587482    -2.868525
