61
11/21/2023 17:07, XYZ structure generated by mol3D Class, molSimplify
Co     2.643886    0.000018    5.044357
O     3.653810    1.224724    3.565568
O     0.704268    0.340728    4.318156
O     2.597480    1.430287    6.432695
N     4.572377    2.864087    4.847369
N     1.140432    1.067981    2.210335
N     0.369464    1.830197    6.686839
C     4.406358    2.231700    3.679996
C     5.153736    2.770027    2.521104
C     5.176900    2.145722    1.339946
C     0.300094    0.647970    3.158163
C     -1.131159    0.553256    2.799450
C     -2.030616    -0.012333    3.610229
C     1.640169    1.988230    7.051881
C     1.907811    2.855315    8.218320
C     3.110796    2.925073    8.796494
O     1.633988    -1.224670    6.523154
O     4.583498    -0.340816    5.770534
O     2.690307    -1.430282    3.656053
N     0.715241    -2.863919    5.241334
N     4.147377    -1.068078    7.878362
N     4.918316    -1.830134    3.401777
C     0.881375    -2.231594    6.408728
C     0.134018    -2.769916    7.567634
C     0.111067    -2.145677    8.748832
C     4.987695    -0.648069    6.930512
C     6.418961    -0.553402    7.289186
C     7.318412    0.012151    6.478375
C     3.647593    -1.988207    3.036815
C     3.379900    -2.855315    1.870403
C     2.176876    -2.925110    1.292315
H     5.169150    3.676662    4.921100
H     4.050615    2.554421    5.664459
H     0.804006    1.325931    1.292422
H     2.130829    1.184227    2.433172
H     -0.378964    2.281729    7.195110
H     0.152708    1.259154    5.868886
H     5.699579    3.698819    2.669286
H     5.731834    2.547827    0.498625
H     4.645343    1.211058    1.188141
H     -1.427507    0.953125    1.832618
H     -3.077226    -0.080315    3.331693
H     -1.740351    -0.429158    4.570273
H     1.070188    3.429730    8.606536
H     3.285108    3.561308    9.658150
H     3.948616    2.338810    8.430856
H     0.118438    -3.676469    5.167574
H     1.236931    -2.554193    4.424222
H     4.483872    -1.325990    8.796259
H     3.156974    -1.184352    7.655568
H     5.666685    -2.281684    2.893436
H     5.135135    -1.259109    4.219726
H     -0.411966    -3.698624    7.419441
H     -0.443796    -2.547663    9.590257
H     0.642792    -1.211102    8.900582
H     6.715324    -0.953278    8.256010
H     8.365029    0.080095    6.756897
H     7.028147    0.428984    5.518335
H     4.217512    -3.429715    1.482141
H     2.002465    -3.561347    0.430679
H     1.339082    -2.338859    1.658031
