31
11/21/2023 17:07, XYZ structure generated by mol3D Class, molSimplify
Co     -0.078221    0.069061    -0.073638
P     -0.034782    2.653696    -0.033162
H     -0.719233    3.415291    -1.004746
H     -0.376213    3.398095    1.119848
N     1.587874    3.142908    -0.368983
H     1.767778    3.385100    -1.344893
N     2.516930    2.223526    0.177821
H     3.394858    2.676134    0.417755
P     2.454317    0.590573    -0.347011
H     3.197455    0.437366    -1.552003
H     3.365695    -0.003157    0.548466
P     0.241297    -2.518201    0.259088
H     1.296529    -3.273604    -0.307244
H     -0.825769    -3.408014    0.016986
N     0.434187    -2.742270    1.959085
H     -0.390977    -3.070060    2.462246
N     1.098650    -1.648078    2.564249
H     1.636164    -1.945160    3.374795
P     0.317153    -0.114740    2.535985
H     1.319605    0.689222    3.114778
H     -0.653798    -0.048826    3.575350
P     -2.659172    -0.274766    -0.112146
H     -3.338106    -1.358851    0.494956
H     -3.520338    0.770260    0.284794
N     -3.085664    -0.392910    -1.780727
H     -3.477836    0.450414    -2.200387
N     -2.072300    -1.017229    -2.544143
H     -2.457644    -1.548092    -3.320601
P     -0.533428    -0.265065    -2.643907
H     0.202667    -1.280900    -3.287661
H     -0.526816    0.701129    -3.690600
