73
11/21/2023 17:07, XYZ structure generated by mol3D Class, molSimplify
Co     -0.012808    -0.008320    0.002672
S     0.493851    2.553655    0.343514
C     0.423050    5.022542    2.413622
C     -0.824264    4.539791    1.722060
C     -0.911859    3.524509    0.860897
C     1.666770    2.955292    1.630987
C     1.542880    4.016523    2.431351
H     0.181917    5.322467    3.441542
H     0.774142    5.950152    1.930953
H     -1.742666    5.080564    1.942136
H     -1.834501    3.235311    0.373022
H     2.515475    2.281813    1.663573
H     2.333447    4.178551    3.161627
S     2.548682    -0.348340    0.510333
C     5.017982    -2.418263    0.439726
C     4.011802    -2.436284    1.559400
C     2.950461    -1.636014    1.682960
C     3.520583    -0.864707    -0.895013
C     4.535939    -1.725775    -0.807353
H     5.317464    -3.446197    0.198056
H     5.945767    -1.936287    0.791293
H     4.173767    -3.166562    2.349990
H     2.276789    -1.668799    2.531497
H     3.231966    -0.376225    -1.817513
H     5.077426    -1.944981    -1.725549
S     -0.521175    -2.571038    -0.337229
C     -0.448521    -5.038572    -2.409301
C     -1.568878    -4.033143    -2.426422
C     -1.693488    -2.972593    -1.625270
C     0.884869    -3.541523    -0.854358
C     0.798164    -4.556177    -1.716367
H     -0.206634    -5.337091    -3.437462
H     -0.799440    -5.966974    -1.928032
H     -2.359304    -4.195121    -3.156863
H     -2.542649    -2.299676    -1.657461
H     1.807093    -3.252800    -0.365394
H     1.716798    -5.096745    -1.936004
S     -2.575774    0.330751    -0.505829
C     -5.044141    2.401716    -0.434485
C     -4.561418    1.709998    0.812755
C     -3.546340    0.848535    0.899922
C     -2.977623    1.618097    -1.678795
C     -4.038537    2.418853    -1.554701
H     -5.343478    3.429804    -0.193331
H     -5.972110    1.919499    -0.785251
H     -5.101948    1.930151    1.731289
H     -3.257224    0.360453    1.822482
H     -2.304549    1.650225    -2.527834
H     -4.200694    3.148911    -2.345446
S     -0.353357    -0.516760    2.564901
C     -2.423392    -0.446245    5.033946
C     -2.441664    -1.565696    4.027477
C     -1.641273    -1.689259    2.966231
C     -0.870257    0.888542    3.536574
C     -1.731439    0.801141    4.551858
H     -1.940781    -0.797942    5.961352
H     -3.451201    -0.204886    5.334045
H     -3.172192    -2.356112    4.189158
H     -1.674159    -2.537649    2.292387
H     -0.381975    1.811092    3.247792
H     -1.951071    1.719419    5.093045
S     0.326610    0.500465    -2.559500
C     2.395823    0.431859    -5.028731
C     2.414207    1.551020    -4.021914
C     1.613913    1.673805    -2.960506
C     0.845457    -0.904844    -3.530160
C     1.706242    -0.816508    -4.545704
H     3.423427    0.191930    -5.330576
H     1.911157    0.783212    -5.955203
H     3.144522    2.341668    -4.183418
H     1.646544    2.521899    -2.286280
H     0.358887    -1.828026    -3.240510
H     1.927565    -1.734760    -5.086231
