25
11/21/2023 17:07, XYZ structure generated by mol3D Class, molSimplify
Co     0.148702    -0.007289    0.101175
N     0.574548    1.941098    0.359900
O     1.981900    2.100683    0.043615
O     2.686885    1.253341    0.932601
N     2.458607    -0.103054    0.484314
H     0.441373    2.414255    1.263052
H     0.126001    2.536142    -0.349369
H     2.746023    -0.638840    1.311124
H     3.185634    -0.273004    -0.221650
N     -0.279153    -1.973591    -0.091889
O     -1.039968    -2.305425    1.101209
O     -0.261199    -1.844548    2.176515
N     -0.246216    -0.395154    2.054409
H     0.485694    -2.660500    -0.135038
H     -0.941454    -2.221005    -0.838126
H     0.480192    -0.139853    2.734962
H     -1.142713    -0.077728    2.446245
N     -2.090997    0.438685    -0.550166
O     -1.921507    0.293077    -1.978995
O     -0.787847    1.065443    -2.330884
N     0.375962    0.325692    -1.875720
H     -2.638676    1.301072    -0.436888
H     -2.739827    -0.329504    -0.343607
H     1.138607    0.985710    -2.078112
H     0.481174    -0.449529    -2.542517
