31
11/21/2023 17:07, XYZ structure generated by mol3D Class, molSimplify
Co     0.022483    0.008219    -0.064679
P     -0.296961    2.640623    -0.504653
H     -1.204664    3.112308    -1.478220
H     -0.371016    3.754967    0.380616
N     1.166156    2.773991    -1.418143
H     1.367181    3.597138    -1.980257
N     2.347557    2.256865    -0.830073
H     2.710694    2.799960    -0.044294
P     2.204169    0.570045    -0.565580
H     2.823410    -0.028709    -1.684051
H     3.207997    0.363808    0.402922
P     0.581718    -2.661935    0.586973
H     1.744044    -3.485580    0.638653
H     -0.344090    -3.677022    0.256340
N     0.071067    -2.377345    2.221319
H     -0.124673    -3.153582    2.848919
N     0.713398    -1.321830    2.915983
H     1.690580    -1.489815    3.161948
P     0.360300    0.192217    2.203944
H     1.441079    0.968222    2.672222
H     -0.678984    0.741760    2.986792
P     -2.210921    -0.459661    0.225710
H     -2.568191    -1.653594    0.889833
H     -3.033139    0.463117    0.903127
N     -2.961854    -0.524527    -1.322362
H     -3.573158    0.252788    -1.561462
N     -2.123268    -0.887065    -2.390490
H     -2.316528    -1.825678    -2.730545
P     -0.473572    -0.413724    -2.275844
H     0.188991    -1.467954    -2.936035
H     -0.278978    0.624861    -3.214220
