49
11/21/2023 17:07, XYZ structure generated by mol3D Class, molSimplify
Co     -0.071575    0.022219    0.102120
O     0.008850    2.032199    -0.136998
C     1.260891    2.630958    -0.363293
C     1.068099    3.959085    -0.588292
C     -0.343581    4.212363    -0.505790
C     -0.961208    3.040943    -0.239412
H     1.840021    4.686823    -0.796626
H     -1.979204    2.715301    -0.100508
H     -0.831338    5.168544    -0.637462
C     2.387389    1.741821    -0.286007
O     2.074566    0.386674    -0.162478
C     3.281483    -0.304816    -0.085308
C     4.307276    0.574459    -0.173134
C     3.742670    1.887105    -0.298079
H     4.286260    2.818265    -0.377397
H     3.205938    -1.374946    0.024729
H     5.359696    0.327493    -0.148083
O     0.241036    -1.984132    0.389427
C     0.355997    -2.374833    1.734214
C     0.359476    -3.733771    1.796392
C     0.234716    -4.222219    0.451304
C     0.152737    -3.155103    -0.374184
H     0.433277    -4.331307    2.694442
H     0.053122    -3.018568    -1.438505
H     0.206910    -5.259570    0.146850
C     0.430748    -1.282051    2.661581
O     0.164928    -0.026483    2.085810
C     0.269753    0.932077    3.104082
C     0.570464    0.302727    4.260931
C     0.677472    -1.104448    3.987063
H     0.914728    -1.881602    4.700320
H     0.101148    1.951578    2.797649
H     0.709825    0.779332    5.221660
O     -2.199058    -0.189368    -0.042376
C     -2.666728    -0.413963    -1.342894
C     -4.003260    -0.671835    -1.295240
C     -4.396885    -0.612271    0.083578
C     -3.292801    -0.329791    0.812751
H     -4.642819    -0.890868    -2.139050
H     -3.081817    -0.199908    1.862332
H     -5.392470    -0.771767    0.474216
C     -1.662803    -0.312388    -2.364217
O     -0.336679    -0.280336    -1.891088
C     0.499438    -0.163285    -3.011888
C     -0.264192    -0.154295    -4.126316
C     -1.639782    -0.242900    -3.722432
H     -2.502641    -0.244614    -4.373925
H     1.556516    -0.124277    -2.806581
H     0.102401    -0.092170    -5.141891
