73
11/21/2023 17:07, XYZ structure generated by mol3D Class, molSimplify
Co     -0.013126    -0.008140    0.002733
S     0.415384    2.432198    0.324807
C     0.395296    4.896534    2.414066
C     -0.861579    4.414813    1.745410
C     -0.968779    3.398235    0.884707
C     1.649107    2.875123    1.533143
C     1.545685    3.931791    2.345917
H     0.184034    5.146365    3.462972
H     0.701944    5.857144    1.965542
H     -1.774006    4.960376    1.978003
H     -1.904016    3.114220    0.418711
H     2.520268    2.230153    1.506917
H     2.383317    4.124491    3.013685
S     2.633894    -0.453507    0.608959
C     5.090189    -2.539933    0.837058
C     3.999591    -2.493905    1.875671
C     2.948972    -1.670526    1.876985
C     3.700292    -1.062804    -0.683451
C     4.695141    -1.930110    -0.483392
H     5.407558    -3.578971    0.682359
H     5.988297    -2.029499    1.223863
H     4.085694    -3.190949    2.706836
H     2.210304    -1.664825    2.670570
H     3.475940    -0.635384    -1.653443
H     5.285813    -2.220214    -1.350289
S     -0.441883    -2.448476    -0.319413
C     -0.421460    -4.912640    -2.408917
C     -1.571822    -3.947859    -2.340904
C     -1.675342    -2.891253    -1.528057
C     0.942308    -3.414722    -0.878862
C     0.835225    -4.431198    -1.739702
H     -0.209854    -5.162190    -3.457823
H     -0.728317    -5.873360    -1.960776
H     -2.409338    -4.140473    -3.008843
H     -2.546488    -2.246254    -1.501931
H     1.877417    -3.130932    -0.412466
H     1.747630    -4.976938    -1.971961
S     -2.660153    0.437440    -0.603408
C     -5.116725    2.523513    -0.831747
C     -4.721592    1.913922    0.488787
C     -3.726631    1.046757    0.688916
C     -2.975426    1.654253    -1.871579
C     -4.026133    2.477517    -1.870371
H     -5.434241    3.562525    -0.677178
H     -6.014760    2.012899    -1.218482
H     -5.312281    2.204066    1.355660
H     -3.502195    0.619501    1.658959
H     -2.236744    1.648565    -2.665151
H     -4.112322    3.174458    -2.701616
S     -0.449087    -0.466316    2.424646
C     -2.772257    -0.169793    4.679828
C     -2.759562    -1.301056    3.693112
C     -1.864062    -1.505260    2.721692
C     -0.835973    0.927054    3.457288
C     -1.808052    0.940049    4.374562
H     -2.562617    -0.566168    5.687936
H     -3.791024    0.236812    4.762406
H     -3.552426    -2.040009    3.793909
H     -1.893432    -2.372080    2.072188
H     -0.149964    1.753881    3.319770
H     -1.902571    1.839862    4.979351
S     0.422680    0.449905    -2.419282
C     2.745914    0.153720    -4.674449
C     2.733035    1.285038    -3.687782
C     1.837488    1.489061    -2.716368
C     0.810014    -0.943455    -3.451772
C     1.782043    -0.956399    -4.369100
H     3.764778    -0.252627    -4.757067
H     2.536109    0.549997    -5.682558
H     3.525774    2.024129    -3.788578
H     1.866700    2.355897    -2.066883
H     0.124231    -1.770442    -3.314125
H     1.876806    -1.856283    -4.973752
