43
11/21/2023 17:07, XYZ structure generated by mol3D Class, molSimplify
Co     -0.001076    -0.001901    0.000242
N     1.333069    0.020568    1.503560
N     1.944248    1.185732    1.868323
N     2.731171    0.983008    2.861339
N     2.636700    -0.331104    3.157859
C     1.774432    -0.920418    2.323107
H     3.179076    -0.722552    3.922218
H     1.506259    -1.964618    2.311772
N     -1.359391    -1.446161    1.261723
N     -1.421211    -1.284841    2.616478
N     -2.156396    -2.194074    3.155220
N     -2.586223    -2.970883    2.141801
C     -2.094945    -2.507432    0.982763
H     -3.190519    -3.764703    2.330144
H     -2.276080    -2.921641    0.003111
N     0.922261    -1.568476    -0.810789
N     1.173155    -2.700565    -0.092769
N     1.740175    -3.579528    -0.836803
N     1.862050    -3.020301    -2.059912
C     1.358589    -1.781453    -2.041471
H     2.289654    -3.542494    -2.818911
H     1.327919    -1.074129    -2.858214
N     -1.335193    -0.024341    -1.503102
N     -1.946538    -1.189398    -1.867997
N     -2.733440    -0.986694    -2.861033
N     -2.638771    0.327413    -3.157426
C     -1.776459    0.916665    -2.322666
H     -3.181088    0.718939    -3.921786
H     -1.508207    1.960843    -2.311330
N     1.357334    1.442187    -1.261118
N     1.418945    1.280715    -2.615865
N     2.154173    2.189893    -3.154624
N     2.584144    2.966790    -2.141313
C     2.092956    2.503435    -0.982206
H     3.188458    3.760547    -2.329754
H     2.274188    2.917678    -0.002584
N     -0.924538    1.564661    0.811358
N     -1.175540    2.696816    0.093460
N     -1.742564    3.575797    0.837470
N     -1.864359    3.016447    2.060516
C     -1.360815    1.777624    2.042050
H     -2.291978    3.538582    2.819546
H     -1.330068    1.070298    2.858785
