49
11/21/2023 17:07, XYZ structure generated by mol3D Class, molSimplify
Co     0.014245    -0.223046    -0.071778
P     -0.357601    2.430820    -0.687062
H     -1.238076    3.081634    0.209078
H     -1.150486    2.611576    -1.845243
C     0.837588    3.847623    -0.959964
H     1.469309    3.936707    -0.061128
H     1.492191    3.575559    -1.803138
O     0.058843    4.988474    -1.205072
H     0.639354    5.737748    -1.425192
P     2.301638    0.113565    -0.423481
H     2.841949    1.139669    0.378556
H     2.636605    0.630721    -1.692405
C     3.644445    -1.170249    -0.227231
H     3.569995    -1.600278    0.783715
H     3.461625    -1.974826    -0.956204
O     4.837926    -0.469324    -0.452339
H     5.597311    -1.070930    -0.362268
P     0.385320    -2.876767    0.543515
H     1.178236    -3.057705    1.701644
H     1.265442    -3.528023    -0.352646
C     -0.810359    -4.293120    0.816677
H     -1.464762    -4.020779    1.659915
H     -1.442217    -4.382071    -0.082075
O     -0.031948    -5.434204    1.061768
H     -0.612651    -6.183212    1.282286
P     -2.273215    -0.559659    0.279909
H     -2.608057    -1.077168    1.548724
H     -2.813504    -1.585620    -0.522327
C     -3.616225    0.724024    0.084113
H     -3.433447    1.528443    0.813272
H     -3.541962    1.154323    -0.926730
O     -4.809576    0.022867    0.309200
H     -5.569087    0.624277    0.218871
P     0.313488    0.190412    2.206497
H     1.619206    -0.002967    2.704812
H     -0.372682    -0.705765    3.051475
C     -0.109435    1.808146    3.035495
H     0.499663    2.601331    2.574333
H     -1.168981    2.032389    2.833631
O     0.171755    1.598688    4.391629
H     0.053554    2.426695    4.888475
P     -0.285046    -0.636280    -2.350089
H     0.401362    0.259786    -3.194990
H     -1.590699    -0.442591    -2.848452
C     0.137615    -2.254057    -3.179144
H     1.197072    -2.478575    -2.977107
H     -0.471755    -3.047131    -2.718160
O     -0.143254    -2.044423    -4.535320
H     -0.026061    -2.872634    -5.032065
