73
11/21/2023 17:07, XYZ structure generated by mol3D Class, molSimplify
Co     -0.001066    -0.000198    0.140076
O     0.177301    2.131697    -0.410937
C     0.555547    3.049517    0.345848
N     0.689321    4.329334    -0.015144
H     0.810289    2.843890    1.393152
C     0.397053    4.772416    -1.377090
H     0.067862    3.915921    -1.963845
H     1.295161    5.206430    -1.829485
H     -0.388034    5.535848    -1.361246
C     1.142580    5.347813    0.930458
H     2.071192    5.806528    0.574940
H     1.323031    4.894226    1.907524
H     0.383406    6.129775    1.036104
O     1.946921    -0.391247    -0.098546
C     2.605889    0.109169    -1.043640
N     3.918735    -0.033897    -1.197568
H     2.109376    0.713041    -1.809871
C     4.731779    -0.786826    -0.241783
H     4.100414    -1.116052    0.581813
H     5.531347    -0.145652    0.142498
H     5.183437    -1.653561    -0.735716
C     4.618103    0.559014    -2.338168
H     5.109969    -0.223766    -2.924525
H     5.377883    1.265352    -1.988397
H     3.907239    1.087306    -2.976923
O     -0.427263    -2.130967    0.728038
C     0.454630    -2.940263    1.087127
N     0.218341    -4.180823    1.524407
H     1.517167    -2.663897    1.062598
C     -1.141282    -4.710137    1.619716
H     -1.841499    -3.952542    1.270412
H     -1.368524    -4.971989    2.658725
H     -1.234459    -5.612634    1.006265
C     1.305532    -5.069262    1.931422
H     1.301172    -5.977041    1.318984
H     1.186700    -5.356434    2.981533
H     2.265758    -4.563535    1.808592
O     -1.944601    0.268751    0.531359
C     -2.687108    1.014946    -0.152847
N     -3.996914    1.141295    0.039040
H     -2.273550    1.619373    -0.965587
C     -4.699548    0.392858    1.081945
H     -5.572107    -0.102769    0.646087
H     -5.039412    1.073548    1.869973
H     -4.025974    -0.352160    1.502483
C     -4.795374    2.072721    -0.758975
H     -5.231677    2.842179    -0.113615
H     -5.604888    1.535041    -1.262350
H     -4.166365    2.554726    -1.510367
O     0.424664    0.415284    2.057057
C     -0.299838    0.040537    3.010414
N     -0.034387    0.290475    4.290244
H     -1.210070    -0.536761    2.825503
C     1.155593    1.038460    4.697252
H     1.788402    1.202540    3.826351
H     1.706828    0.465618    5.449399
H     0.864797    2.000187    5.133692
C     -0.938570    -0.148019    5.353606
H     -0.401876    -0.788390    6.060640
H     -1.771641    -0.709352    4.925408
H     -1.333725    0.718100    5.894633
O     -0.319752    -0.254684    -1.806781
C     -0.722388    -1.361057    -2.251494
N     -0.945945    -1.607238    -3.537761
H     -0.911945    -2.191732    -1.563993
C     -0.733047    -0.586962    -4.565924
H     -1.659772    -0.432027    -5.127543
H     0.046212    -0.917476    -5.260572
H     -0.431719    0.343955    -4.088177
C     -1.406710    -2.920094    -3.992617
H     -0.673199    -3.358880    -4.676569
H     -2.361541    -2.818904    -4.518013
H     -1.540049    -3.585168    -3.137004
