73
11/21/2023 17:07, XYZ structure generated by mol3D Class, molSimplify
Co     0.050883    0.005044    0.000447
O     0.081995    2.208446    0.000835
C     0.124091    5.154915    -0.189830
C     1.327757    4.285301    0.043807
C     1.280636    2.960737    0.127595
C     -1.100148    2.976106    -0.178799
C     -1.110285    4.300555    -0.267293
H     0.246476    5.744201    -1.110569
H     0.026896    5.899078    0.613852
H     2.302675    4.750947    0.156190
H     2.117203    2.301465    0.293244
H     -1.960499    2.327702    -0.214168
H     -2.077576    4.777753    -0.394734
O     2.259090    0.000855    0.032780
C     5.211918    0.022707    0.051945
C     4.339073    -0.042128    1.273974
C     3.011643    -0.053016    1.236635
C     3.027081    0.040688    -1.161938
C     4.354212    0.050725    -1.182290
H     5.898843    -0.835612    0.024480
H     5.864072    0.907614    0.090052
H     4.804315    -0.084230    2.254613
H     2.347658    -0.097196    2.084355
H     2.375084    0.051518    -2.020240
H     4.831434    0.076314    -2.157618
O     0.040108    -2.201078    -0.000707
C     0.039117    -5.153836    0.050368
C     -1.184879    -4.290000    -0.071676
C     -1.155491    -2.962552    -0.094010
C     1.237428    -2.960618    0.099241
C     1.265349    -4.287503    0.124192
H     0.107117    -5.846241    -0.801332
H     -0.031743    -5.800132    0.937537
H     -2.160184    -4.762146    -0.147349
H     -2.005898    -2.305439    -0.176520
H     2.089795    -2.302174    0.139119
H     2.241636    -4.757864    0.197078
O     -2.154053    0.005374    -0.014190
C     -5.104684    -0.119864    -0.028809
C     -4.240458    -0.220478    1.196974
C     -2.914556    -0.160625    1.175174
C     -2.914656    0.141068    -1.206395
C     -4.241093    0.087020    -1.241582
H     -5.825060    0.704528    0.074622
H     -5.720684    -1.023865    -0.143749
H     -4.711376    -0.342354    2.168060
H     -2.258696    -0.214916    2.028833
H     -2.258930    0.283954    -2.050018
H     -4.712674    0.202217    -2.213291
O     0.047747    -0.011545    2.208970
C     0.028706    -0.014786    5.161925
C     0.056729    1.215170    4.298072
C     0.064269    1.188037    2.971021
C     -0.006349    -1.211618    2.967416
C     -0.014127    -1.241955    4.294956
H     -0.838432    0.008923    5.837833
H     0.905591    -0.041506    5.825406
H     0.067402    2.193125    4.770518
H     0.077361    2.042302    2.313887
H     -0.034548    -2.063267    2.307530
H     -0.054320    -2.220463    4.764810
O     0.052421    0.025204    -2.202201
C     -0.153003    0.067087    -5.147229
C     0.130350    1.263517    -4.282400
C     0.219280    1.216651    -2.958221
C     -0.158199    -1.154242    -2.966756
C     -0.255454    -1.163905    -4.290618
H     0.636485    -0.055594    -5.902653
H     -1.077886    0.217339    -5.723585
H     0.277216    2.232192    -4.751394
H     0.421105    2.048434    -2.302739
H     -0.209529    -2.012522    -2.316608
H     -0.408281    -2.128602    -4.765603
