61
11/21/2023 17:07, XYZ structure generated by mol3D Class, molSimplify
Co     -0.005350    0.015188    -0.007729
N     0.304494    2.216846    -0.307194
C     0.105994    4.542900    -0.858130
O     1.471461    4.136948    -0.515011
C     1.427055    2.843308    -0.246597
C     -0.707767    3.234679    -0.703832
H     -1.194359    2.934262    -1.635667
H     -1.479279    3.310525    0.067492
H     0.130490    4.937135    -1.875106
H     -0.181430    5.335979    -0.166388
H     2.374442    2.389810    0.019747
N     2.197005    -0.273427    0.262698
C     4.516643    -0.859030    0.086778
O     4.110621    -0.475666    1.441652
C     2.822426    -0.186087    1.384609
C     3.210345    -0.720644    -0.732861
H     2.898452    -1.666048    -1.183413
H     3.296100    0.019202    -1.533378
H     4.906448    -1.876509    0.140641
H     5.313064    -0.178905    -0.218760
H     2.371348    0.117104    2.322104
N     -0.302608    -2.189647    0.283610
C     -0.091800    -4.544521    0.688347
O     -1.480742    -4.078829    0.648788
C     -1.439646    -2.781651    0.400042
C     0.726913    -3.243509    0.503397
H     1.402205    -3.295134    -0.355256
H     1.325425    -2.998242    1.385528
H     0.028801    -5.268555    -0.119479
H     0.059633    -5.039728    1.648058
H     -2.403560    -2.295745    0.305930
N     -2.203978    0.302779    -0.260986
C     -4.518240    0.904561    -0.074599
O     -4.127191    0.491732    -1.425355
C     -2.841173    0.193171    -1.374277
C     -3.203039    0.782772    0.733578
H     -3.283345    0.067407    1.556879
H     -2.880420    1.738347    1.154415
H     -5.311563    0.231548    0.253961
H     -4.908181    1.920817    -0.146178
H     -2.401576    -0.135075    -2.308672
N     -0.297074    0.334244    2.183231
C     -0.779818    0.113816    4.521685
O     -0.437269    1.481415    4.120759
C     -0.199244    1.447776    2.821001
C     -0.689163    -0.682955    3.197211
H     -1.643462    -1.138052    2.919209
H     0.061492    -1.477504    3.234072
H     -1.778476    0.144094    4.959539
H     -0.058159    -0.192638    5.280382
H     0.073876    2.395545    2.371964
N     0.287033    -0.306526    -2.197135
C     0.855436    -0.134856    -4.520671
O     0.434662    -1.480096    -4.118313
C     0.158274    -1.421239    -2.827253
C     0.746421    0.683218    -3.210445
H     0.022216    1.499226    -3.286576
H     1.703324    1.113931    -2.905173
H     0.181130    0.193211    -5.312928
H     1.869421    -0.216838    -4.914739
H     -0.173547    -2.350050    -2.378083
