73
11/21/2023 17:07, XYZ structure generated by mol3D Class, molSimplify
Co     0.040562    -0.002789    -0.001517
O     0.020446    2.258618    -0.005480
C     -0.020526    5.204490    -0.040643
C     1.219832    4.358051    0.018777
C     1.202859    3.028548    0.034162
C     -1.182446    2.994038    -0.074770
C     -1.236584    4.323398    -0.090146
H     0.008042    5.871618    -0.915384
H     -0.069212    5.880931    0.826187
H     2.190936    4.843204    0.048568
H     2.066354    2.383176    0.071110
H     -2.024385    2.320375    -0.105391
H     -2.220523    4.780418    -0.140694
O     2.285992    -0.008691    -0.026816
C     5.214813    0.303739    -0.076145
C     4.360755    0.367911    1.157869
C     3.038064    0.221305    1.144723
C     3.031760    -0.090767    -1.223772
C     4.353339    0.046039    -1.279954
H     5.979546    -0.480943    0.026538
H     5.785113    1.236741    -0.201356
H     4.832661    0.531736    2.122158
H     2.387860    0.247237    2.005234
H     2.373777    -0.271792    -2.058745
H     4.820442    -0.038713    -2.256701
O     0.044692    -2.264071    -0.000461
C     0.067179    -5.210559    0.022771
C     -1.166174    -4.356396    -0.065542
C     -1.141170    -3.026998    -0.074237
C     1.240987    -3.007362    0.092904
C     1.286978    -4.337045    0.103962
H     0.133134    -5.885690    -0.843893
H     0.013091    -5.878912    0.895386
H     -2.139016    -4.835604    -0.122580
H     -1.999349    -2.375866    -0.128902
H     2.086877    -2.339786    0.145042
H     2.266877    -4.800003    0.174779
O     -2.209669    0.003471    0.022560
C     -5.139154    -0.313452    0.046746
C     -4.275172    -0.174349    1.268296
C     -2.953849    -0.032365    1.222817
C     -2.960183    -0.149228    -1.162747
C     -4.282826    -0.294053    -1.187377
H     -5.886843    0.493258    0.008639
H     -5.728951    -1.241261    0.093652
H     -4.740062    -0.184315    2.249690
H     -2.293503    0.070221    2.068921
H     -2.308684    -0.119562    -2.022038
H     -4.753308    -0.392894    -2.161190
O     0.038549    0.018006    2.241821
C     0.377769    0.070875    5.167290
C     0.112360    1.273480    4.306790
C     -0.037193    1.215224    2.985802
C     0.261640    -1.155518    2.995403
C     0.420710    -1.166306    4.315814
H     -0.396047    -0.024177    5.943893
H     1.319689    0.193644    5.723367
H     0.029824    2.250734    4.773401
H     -0.228445    2.049754    2.329415
H     0.267183    -2.017166    2.346526
H     0.576471    -2.131103    4.789253
O     0.045783    -0.018417    -2.246829
C     -0.249215    -0.042556    -5.177960
C     -0.251523    1.191102    -4.320131
C     -0.114577    1.167222    -2.997467
C     0.057393    -1.215664    -2.994111
C     -0.074181    -1.261646    -4.317441
H     0.551100    0.014161    -5.931182
H     -1.179731    -0.112010    -5.761463
H     -0.358000    2.163957    -4.790754
H     -0.095286    2.024450    -2.343161
H     0.184951    -2.061032    -2.336293
H     -0.046079    -2.241151    -4.785780
