49
11/21/2023 17:07, XYZ structure generated by mol3D Class, molSimplify
Co     0.000025    5.920738    4.080202
N     -0.904725    3.989436    2.997138
N     -2.179959    3.688570    3.072787
N     -2.341034    2.542133    2.402828
H     -3.266299    2.134223    2.336983
C     -0.252490    3.029821    2.282235
C     -1.173944    2.085601    1.889846
H     0.808689    3.088038    2.106328
H     -1.097574    1.174088    1.317086
N     1.394028    6.169344    2.628028
N     2.118702    5.156814    2.208328
N     2.939201    5.652602    1.285614
H     3.590861    5.027227    0.825483
C     1.759352    7.310865    1.976628
C     2.763469    6.982774    1.097370
H     1.288431    8.256996    2.179688
H     3.338715    7.562136    0.391697
N     -1.297257    7.112024    3.106062
N     -1.013724    8.357825    2.805468
N     -2.100891    8.845653    2.212905
H     -2.092215    9.807990    1.894641
C     -2.567367    6.806955    2.711827
C     -3.098113    7.931840    2.127062
H     -2.990198    5.828534    2.873890
H     -4.057155    8.142622    1.679349
N     0.904665    7.851871    5.163018
N     2.179857    8.152836    5.087025
N     2.340959    9.299338    5.756857
H     3.266223    9.707295    5.822431
C     0.252509    8.811487    5.878001
C     1.173966    9.755821    6.270101
H     -0.808621    8.753188    6.054163
H     1.097645    10.667374    6.842804
N     -1.394012    5.671999    5.532296
N     -2.118592    6.684504    5.952226
N     -2.939150    6.188626    6.874844
H     -3.590766    6.813930    7.335133
C     -1.759446    4.530371    6.183451
C     -2.763542    4.858396    7.062761
H     -1.288629    3.584229    5.980200
H     -3.338854    4.278937    7.768301
N     1.297263    4.729406    5.054294
N     1.013816    3.483530    5.354664
N     2.100952    2.995667    5.947264
H     2.092383    2.033287    6.265398
C     2.567299    5.034516    5.448720
C     3.098072    3.909566    6.033334
H     2.990084    6.012983    5.286814
H     4.057092    3.698788    6.481098
