61
11/21/2023 17:07, XYZ structure generated by mol3D Class, molSimplify
Co     2.643905    -0.000018    5.044413
O     3.562301    1.112090    3.726534
O     0.858148    0.396508    4.392728
O     2.618055    1.383492    6.400636
N     4.572404    2.777922    4.931172
N     1.190697    1.120924    2.248706
N     0.393185    1.776411    6.789116
C     4.364421    2.114003    3.804379
C     5.079613    2.565639    2.600010
C     5.129584    1.856371    1.465302
C     0.401113    0.747791    3.243451
C     -1.051984    0.750744    3.011800
C     -1.927230    0.155975    3.832320
C     1.675957    1.951566    7.067892
C     2.019301    2.843245    8.187549
C     3.241245    2.902071    8.732097
O     1.725481    -1.112222    6.362188
O     4.429688    -0.396604    5.696061
O     2.669744    -1.383545    3.688234
N     0.715810    -2.778261    5.157427
N     4.097153    -1.121210    7.839966
N     4.894588    -1.776901    3.300011
C     0.923464    -2.114198    6.284204
C     0.207972    -2.565769    7.488408
C     0.157664    -1.856215    8.622917
C     4.886776    -0.747868    6.845329
C     6.339871    -0.750532    7.077088
C     7.214991    -0.155530    6.256600
C     3.611808    -1.951715    3.021023
C     3.268423    -2.843132    1.901163
C     2.046508    -2.901478    1.356496
H     5.195679    3.576899    4.953703
H     4.048900    2.529928    5.766631
H     0.802472    1.409978    1.358180
H     2.194672    1.184717    2.402284
H     -0.322747    2.254697    7.323971
H     0.122045    1.214959    5.985973
H     5.595028    3.520005    2.678093
H     5.676861    2.224233    0.602887
H     4.642843    0.890783    1.365713
H     -1.393574    1.251778    2.109167
H     -2.991219    0.172277    3.617161
H     -1.613544    -0.375506    4.726193
H     1.209637    3.453628    8.580524
H     3.447520    3.565723    9.566166
H     4.062308    2.284832    8.378966
H     0.092603    -3.577287    5.134834
H     1.239533    -2.530347    4.322085
H     4.485308    -1.410235    8.730530
H     3.093219    -1.185233    7.686223
H     5.610483    -2.255249    2.765158
H     5.165739    -1.215711    4.103338
H     -0.307337    -3.520194    7.410358
H     -0.389786    -2.223925    9.485284
H     0.644269    -0.890546    8.722377
H     6.681531    -1.251511    7.979728
H     8.278971    -0.171613    6.471815
H     6.901216    0.375936    5.362741
H     4.077980    -3.453644    1.508162
H     1.840130    -3.564881    0.522256
H     1.225594    -2.284079    1.709685
