43
11/21/2023 17:07, XYZ structure generated by mol3D Class, molSimplify
Co     -0.001057    -0.001956    0.000306
N     1.397884    0.046198    1.417469
N     1.906526    1.255442    1.798836
N     2.750567    1.096495    2.747407
N     2.797788    -0.227664    3.000734
C     1.966146    -0.878053    2.186933
H     3.414287    -0.586588    3.729906
H     1.798693    -1.943597    2.156981
N     -1.118486    -1.150914    1.173176
N     -1.141225    -0.884750    2.512952
N     -1.869343    -1.746644    3.117191
N     -2.327422    -2.593042    2.171900
C     -1.866477    -2.232045    0.974154
H     -2.935962    -3.369134    2.432651
H     -2.070621    -2.717704    0.032424
N     0.832014    -1.634514    -0.786617
N     1.101651    -2.686918    0.042194
N     1.573871    -3.666678    -0.631585
N     1.612145    -3.263958    -1.917979
C     1.154690    -2.015716    -2.019557
H     1.959199    -3.894613    -2.640785
H     1.075479    -1.436572    -2.926535
N     -1.399957    -0.049956    -1.416837
N     -1.908753    -1.259196    -1.798001
N     -2.752780    -1.100190    -2.746573
N     -2.799836    0.223943    -3.000115
C     -1.968057    0.874296    -2.186438
H     -3.416299    0.582866    -3.729318
H     -1.800447    1.939822    -2.156621
N     1.116359    1.146935    -1.172571
N     1.139272    0.880715    -2.512346
N     1.867369    1.742590    -3.116626
N     2.325224    2.589076    -2.171316
C     1.864250    2.228132    -0.973562
H     2.933694    3.365219    -2.432065
H     2.068297    2.713866    -0.031853
N     -0.834179    1.630644    0.787095
N     -1.103489    2.683043    -0.041825
N     -1.575830    3.662799    0.631869
N     -1.614518    3.260075    1.918253
C     -1.157169    2.011803    2.019962
H     -1.961738    3.890751    2.640960
H     -1.078209    1.432649    2.926954
