73
11/21/2023 17:07, XYZ structure generated by mol3D Class, molSimplify
Co     -0.017244    -0.019547    0.221060
O     0.198730    1.852999    -0.205728
C     0.702364    2.737862    0.563527
N     0.847547    3.997615    0.213481
H     1.045127    2.469821    1.563728
C     0.438675    4.502228    -1.105345
H     0.188403    3.665549    -1.755312
H     1.263404    5.075066    -1.537633
H     -0.426223    5.163309    -0.993516
C     1.418246    4.986201    1.144109
H     2.326441    5.413654    0.710476
H     1.660626    4.509806    2.095523
H     0.694222    5.787708    1.315931
O     1.863397    -0.360938    0.007711
C     2.533388    0.080861    -0.984510
N     3.831892    -0.081435    -1.113597
H     2.030905    0.629447    -1.782363
C     4.646630    -0.781187    -0.109513
H     4.064013    -0.928559    0.798248
H     5.527980    -0.174481    0.113094
H     4.975327    -1.746006    -0.508231
C     4.545602    0.417231    -2.301466
H     5.028740    -0.418651    -2.815138
H     5.310137    1.135196    -1.992564
H     3.845358    0.903114    -2.983140
O     -0.384344    -1.886338    0.504365
C     0.491171    -2.717714    0.921574
N     0.221775    -3.975694    1.193052
H     1.522869    -2.396181    1.068413
C     -1.126870    -4.545191    1.054289
H     -1.840009    -3.752069    0.836486
H     -1.399952    -5.042973    1.988680
H     -1.130145    -5.287169    0.249930
C     1.277646    -4.900775    1.639100
H     1.366512    -5.725212    0.926161
H     1.016624    -5.305107    2.620910
H     2.232523    -4.376569    1.705751
O     -1.887380    0.235784    0.585993
C     -2.629493    1.019532    -0.093719
N     -3.925329    1.139034    0.096526
H     -2.196321    1.639674    -0.879653
C     -4.652230    0.362129    1.110949
H     -5.530016    -0.093487    0.645361
H     -4.984841    1.027211    1.913831
H     -4.003943    -0.415100    1.511487
C     -4.723274    2.101744    -0.681510
H     -5.159573    2.843599    -0.006601
H     -5.528501    1.572928    -1.198299
H     -4.092911    2.608005    -1.414794
O     0.385651    0.295623    2.072363
C     -0.410451    0.009932    3.029024
N     -0.086743    0.129386    4.297946
H     -1.417013    -0.351887    2.816759
C     1.239202    0.586755    4.739234
H     1.898182    0.688891    3.878826
H     1.653125    -0.145648    5.437670
H     1.140911    1.546266    5.256009
C     -1.059432    -0.171626    5.361976
H     -0.662956    -0.959577    6.008315
H     -2.003298    -0.502103    4.925155
H     -1.233256    0.726142    5.961853
O     -0.292195    -0.202238    -1.682307
C     -0.852352    -1.191340    -2.260988
N     -1.041669    -1.254216    -3.561495
H     -1.209369    -2.041838    -1.678304
C     -0.626046    -0.180174    -4.474796
H     -1.479882    0.113501    -5.091544
H     0.170104    -0.544397    -5.131425
H     -0.274955    0.674677    -3.899590
C     -1.672469    -2.430199    -4.184601
H     -0.975939    -2.883288    -4.895518
H     -2.575188    -2.120257    -4.718116
H     -1.937910    -3.163792    -3.421416
