55
11/21/2023 17:07, XYZ structure generated by mol3D Class, molSimplify
Co     -0.006971    -0.036292    0.003205
N     0.473361    2.114615    -0.362114
N     2.171713    -0.029442    -0.348054
C     -0.349944    3.181756    -0.405522
C     0.114230    4.458120    -0.706547
C     1.485023    4.589786    -0.967639
N     2.289302    3.529296    -0.925531
N     3.991416    1.426184    -0.777377
C     4.848524    0.407259    -0.730318
C     4.400828    -0.896582    -0.476604
C     3.032868    -1.066438    -0.291869
C     1.775170    2.343404    -0.629656
C     2.700803    1.187302    -0.586711
H     2.605689    -2.044185    -0.093212
H     5.087751    -1.734991    -0.432354
H     5.898982    0.635305    -0.900083
H     -1.398112    3.003094    -0.187136
H     -0.553816    5.312182    -0.739639
H     1.938196    5.547887    -1.214618
N     -0.287552    -2.159671    0.592583
N     0.330882    -0.032912    2.199515
C     -0.654502    -3.210232    -0.169946
C     -0.845223    -4.478513    0.368085
C     -0.626762    -4.623680    1.744800
N     -0.278046    -3.577163    2.492018
N     0.478325    -1.498556    4.055766
C     0.814674    -0.489994    4.858513
C     0.941791    0.812383    4.356479
C     0.681750    0.992867    3.002259
C     -0.121844    -2.396107    1.909772
C     0.249072    -1.250581    2.773445
H     0.747512    1.971945    2.538834
H     1.219927    1.642843    4.996568
H     0.979152    -0.725105    5.908262
H     -0.792539    -3.021746    -1.229695
H     -1.138602    -5.319254    -0.251475
H     -0.729354    -5.581957    2.250198
N     -2.201976    0.285259    0.003249
N     -0.590115    -0.291896    -2.125423
C     -3.022341    0.507747    1.050859
C     -4.399533    0.625040    0.894439
C     -4.901492    0.506377    -0.408821
N     -4.084479    0.278689    -1.436268
N     -2.463678    -0.147322    -3.569129
C     -1.698153    -0.397712    -4.629999
C     -0.319686    -0.606105    -4.484390
C     0.194426    -0.539994    -3.193752
C     -2.782137    0.172600    -1.208318
C     -1.902737    -0.101654    -2.368613
H     1.251999    -0.689953    -3.000652
H     0.316884    -0.807257    -5.339445
H     -2.189192    -0.427675    -5.600702
H     -2.554541    0.592169    2.026425
H     -5.053396    0.806098    1.740893
H     -5.963084    0.596894    -0.630486
