49
11/21/2023 17:07, XYZ structure generated by mol3D Class, molSimplify
Co     0.000079    5.921079    4.081351
N     -0.564556    3.991637    3.116283
N     -1.833661    3.677534    2.969905
N     -1.857685    2.481903    2.365706
H     -2.754595    2.052719    2.153746
C     0.218780    3.001237    2.611984
C     -0.621365    2.009680    2.116781
H     1.295288    3.056243    2.617289
H     -0.430002    1.061393    1.634759
N     1.593637    6.261906    2.570761
N     2.434273    5.293968    2.272745
N     3.258634    5.788504    1.339442
H     3.992426    5.194514    0.962226
C     1.879794    7.368338    1.834933
C     2.967770    7.065392    1.023871
H     1.305354    8.277100    1.914235
H     3.516671    7.638907    0.290363
N     -1.491079    7.031753    2.869019
N     -1.183185    8.185480    2.318431
N     -2.281499    8.595668    1.668571
H     -2.256952    9.477305    1.162818
C     -2.778634    6.706735    2.577915
C     -3.302458    7.725749    1.789369
H     -3.230622    5.791501    2.923664
H     -4.272016    7.876174    1.336007
N     0.564423    7.850407    5.043868
N     1.833619    8.164792    5.189235
N     1.857787    9.360209    5.793668
H     2.754724    9.789643    6.004985
C     -0.218786    8.840400    5.549248
C     0.621500    9.831971    6.043896
H     -1.295287    8.785050    5.544886
H     0.430319    10.780054    6.526388
N     -1.593567    5.579826    5.590230
N     -2.434660    6.547606    5.887617
N     -3.259191    6.052971    6.820577
H     -3.993336    6.646800    7.197355
C     -1.879581    4.473441    6.326248
C     -2.967951    4.776223    7.136646
H     -1.304743    3.564883    6.247441
H     -3.516965    4.202758    7.870105
N     1.491248    4.809009    5.290620
N     1.183544    3.654651    5.840039
N     2.281752    3.244271    6.489809
H     2.257477    2.362139    6.994707
C     2.778525    5.134402    5.582662
C     3.302386    4.114835    6.370304
H     3.230183    6.050250    5.238079
H     4.271790    3.964352    6.823972
