61
11/21/2023 17:07, XYZ structure generated by mol3D Class, molSimplify
Co     2.643869    0.000009    5.044442
O     3.585799    1.222243    3.711772
O     0.764651    0.440825    4.368144
O     2.607688    1.444409    6.439399
N     4.664903    2.843701    4.882093
N     1.104897    1.233893    2.263374
N     0.411069    1.910117    6.813173
C     4.450675    2.168888    3.759010
C     5.217481    2.555225    2.567004
C     5.186763    1.856475    1.424882
C     0.299019    0.812013    3.230047
C     -1.145437    0.787252    2.961810
C     -2.033811    0.257621    3.813054
C     1.695397    2.050280    7.113221
C     2.053290    2.921101    8.241258
C     3.290975    2.980176    8.750449
O     1.701951    -1.222191    6.377096
O     4.523073    -0.441182    5.720690
O     2.680245    -1.444414    3.649399
N     0.622688    -2.843419    5.206693
N     4.182852    -1.233935    7.825577
N     4.876891    -1.909801    3.275431
C     0.836900    -2.168682    6.329817
C     0.069958    -2.554902    7.521773
C     0.100714    -1.856027    8.663819
C     4.988735    -0.812465    6.858727
C     6.433258    -0.788254    7.126731
C     7.321590    -0.258528    6.275499
C     3.592571    -2.050084    2.975444
C     3.234716    -2.920817    1.847327
C     1.997042    -2.979964    1.338128
H     5.317561    3.618821    4.910620
H     4.117048    2.630990    5.711221
H     0.734349    1.553000    1.375443
H     2.104128    1.316783    2.442291
H     -0.303244    2.407497    7.333017
H     0.138820    1.356029    6.003019
H     5.833104    3.447310    2.653113
H     5.768343    2.169742    0.563427
H     4.592799    0.953221    1.318215
H     -1.473685    1.216630    2.018392
H     -3.094585    0.253929    3.582351
H     -1.731269    -0.192913    4.753912
H     1.249675    3.515168    8.669574
H     3.517933    3.628708    9.590964
H     4.105104    2.377718    8.357562
H     -0.030042    -3.618476    5.178101
H     1.170676    -2.630780    4.377631
H     4.553413    -1.553071    8.713491
H     3.183556    -1.316400    7.646854
H     5.591243    -2.407032    2.755503
H     5.149103    -1.355796    4.085653
H     -0.545734    -3.446944    7.435701
H     -0.480945    -2.169138    9.525278
H     0.694807    -0.952849    8.770427
H     6.761561    -1.218061    8.069932
H     8.382413    -0.255200    6.505997
H     7.018978    0.192447    5.334870
H     4.038375    -3.514783    1.418954
H     1.770180    -3.628461    0.497563
H     1.182850    -2.377622    1.731059
