49
11/21/2023 17:07, XYZ structure generated by mol3D Class, molSimplify
Co     0.013943    -0.222876    -0.071691
P     -0.347320    2.403918    -0.715807
H     -1.178222    2.837867    0.343642
H     -1.253284    2.656372    -1.771633
C     0.791722    3.947683    -0.842581
H     1.530495    3.859303    -0.040613
H     1.302832    3.923224    -1.811656
O     0.022784    5.080093    -0.621037
H     -0.219889    5.518499    -1.456849
P     2.584957    0.209590    -0.516305
H     3.162902    1.192335    0.319934
H     2.723314    0.893698    -1.743412
C     4.082729    -0.996468    -0.709951
H     4.324424    -1.405698    0.277812
H     3.738838    -1.802407    -1.364805
O     5.128140    -0.338259    -1.333685
H     5.779932    -0.007665    -0.689674
P     0.375323    -2.849765    0.572420
H     1.281794    -3.102197    1.627816
H     1.205678    -3.283803    -0.487421
C     -0.763735    -4.393400    0.699773
H     -1.274498    -4.368854    1.669030
H     -1.502819    -4.305068    -0.101916
O     0.005053    -5.525899    0.478042
H     0.247953    -5.964265    1.313807
P     -2.556832    -0.655636    0.373024
H     -2.695039    -1.339752    1.600141
H     -3.134598    -1.638494    -0.463205
C     -4.054746    0.550186    0.566583
H     -3.710997    1.356238    1.221374
H     -4.296495    0.959323    -0.421207
O     -5.100087    -0.108110    1.190363
H     -5.751793    -0.438894    0.546362
P     0.540052    0.129740    2.533981
H     1.853619    -0.301520    2.817029
H     -0.143109    -0.773879    3.380503
C     0.543093    1.717033    3.646079
H     1.101216    2.473656    3.087320
H     -0.494265    2.042550    3.782171
O     1.222271    1.442183    4.817784
H     0.613240    1.232762    5.549683
P     -0.512220    -0.575492    -2.677918
H     0.171228    0.327880    -3.524472
H     -1.825663    -0.143930    -2.961095
C     -0.515521    -2.162888    -3.789866
H     0.521775    -2.488636    -3.925859
H     -1.073880    -2.919338    -3.231113
O     -1.194542    -1.887944    -4.961647
H     -0.585406    -1.678712    -5.693516
