43
11/21/2023 17:07, XYZ structure generated by mol3D Class, molSimplify
Co     0.000012    -0.000122    -0.000009
N     1.482274    -0.015364    1.534399
N     1.992299    1.197664    1.907841
N     2.838258    1.041720    2.855463
N     2.888928    -0.284417    3.114091
C     2.057802    -0.937286    2.300944
H     3.508094    -0.638054    3.843239
H     1.891876    -2.004156    2.268503
N     -1.286753    -1.219311    1.173803
N     -1.449774    -0.844553    2.480956
N     -2.206453    -1.680691    3.083384
N     -2.553014    -2.617282    2.170202
C     -1.987869    -2.336084    0.996693
H     -3.166237    -3.387018    2.437652
H     -2.096596    -2.898768    0.081547
N     0.866850    -1.752541    -0.853337
N     1.106948    -2.788198    0.009677
N     1.586661    -3.789229    -0.625825
N     1.665763    -3.417665    -1.924723
C     1.225153    -2.168347    -2.066642
H     2.026247    -4.070600    -2.620229
H     1.182435    -1.604310    -2.986202
N     -1.482230    0.014853    -1.534398
N     -1.991851    -1.198468    -1.907536
N     -2.837860    -1.043063    -2.855170
N     -2.888649    0.283052    -3.113839
C     -2.057840    0.936691    -2.300994
H     -3.507911    0.636319    -3.843082
H     -1.892218    2.003619    -2.268800
N     1.286865    1.219199    -1.173725
N     1.449704    0.844327    -2.480877
N     2.206187    1.680507    -3.083472
N     2.552764    2.617146    -2.170345
C     1.987848    2.336067    -0.996696
H     3.165890    3.386910    -2.437934
H     2.096677    2.898809    -0.081599
N     -0.866718    1.752437    0.853157
N     -1.106706    2.788070    -0.009929
N     -1.586552    3.789106    0.625458
N     -1.665840    3.417542    1.924342
C     -1.225205    2.168249    2.066405
H     -2.026440    4.070493    2.619772
H     -1.182587    1.604250    2.985992
