25
11/21/2023 17:08, XYZ structure generated by mol3D Class, molSimplify
Cr     0.001261    0.001746    0.001985
S     -0.245011    2.432559    0.435474
C     -1.530856    2.900486    1.321442
H     -2.254700    2.209694    1.752242
H     -1.692259    3.964183    1.497775
S     2.389771    0.475627    -0.395025
C     2.815895    1.787264    -1.262600
H     3.873445    1.991953    -1.426834
H     2.095704    2.484065    -1.688810
S     0.247732    -2.429078    -0.431111
C     1.534041    -2.897339    -1.316223
H     2.258189    -2.206717    -1.746785
H     1.695478    -3.961097    -1.492160
S     -2.387261    -0.472108    0.398551
C     -2.813483    -1.783942    1.265780
H     -3.871071    -1.988719    1.429667
H     -2.093363    -2.480742    1.692115
S     0.297737    -0.326684    2.418597
C     1.768361    -0.820567    2.915997
H     2.610500    -0.991305    2.247144
H     1.931890    -0.993802    3.979372
S     -0.295346    0.330192    -2.414599
C     -1.765548    0.825511    -2.911838
H     -1.928997    0.998713    -3.975225
H     -2.607538    0.996943    -2.242981
