73
11/21/2023 17:08, XYZ structure generated by mol3D Class, molSimplify
Cr     -0.013498    -0.008195    0.002285
S     0.636719    2.798734    0.481817
C     0.842509    5.177156    2.638082
C     -0.484061    4.771544    2.046626
C     -0.677796    3.805011    1.146603
C     1.906308    3.075405    1.707740
C     1.893378    4.098536    2.564183
H     0.701438    5.482287    3.682192
H     1.210165    6.083887    2.128660
H     -1.358983    5.325538    2.381483
H     -1.650434    3.561413    0.734667
H     2.703003    2.340130    1.677596
H     2.719845    4.169392    3.268407
S     2.516772    -0.449573    0.525361
C     4.690521    -2.830423    0.221577
C     3.693754    -2.808422    1.347477
C     2.750303    -1.888765    1.559985
C     3.475030    -0.908484    -0.908803
C     4.361133    -1.905857    -0.918608
H     4.796601    -3.856813    -0.155320
H     5.689805    -2.581392    0.616349
H     3.761781    -3.617961    2.071965
H     2.087937    -1.905965    2.417565
H     3.306985    -0.254701    -1.755981
H     4.916170    -2.060645    -1.841935
S     -0.662643    -2.814906    -0.476105
C     -0.867831    -5.194117    -2.631836
C     -1.919368    -4.116196    -2.557528
C     -1.932611    -3.092848    -1.701350
C     0.652056    -3.821007    -1.140797
C     0.458589    -4.787888    -2.040504
H     -0.726726    -5.498905    -3.676050
H     -1.234861    -6.101220    -2.122624
H     -2.746192    -4.187798    -3.261257
H     -2.729850    -2.358163    -1.671007
H     1.624653    -3.577050    -0.728994
H     1.333687    -5.341709    -2.375192
S     -2.543767    0.433160    -0.521034
C     -4.715929    2.815456    -0.215927
C     -4.386911    1.890214    0.923804
C     -3.501499    0.892231    0.913438
C     -2.777020    1.872591    -1.555389
C     -3.719759    2.792851    -1.342330
H     -4.820861    3.841838    0.161329
H     -5.715648    2.567518    -0.610287
H     -4.941665    2.044998    1.847301
H     -3.333792    0.237995    1.760335
H     -2.115119    1.889433    -2.413331
H     -3.787653    3.602450    -2.066764
S     -0.363240    -0.459921    2.550945
C     -2.454216    -0.445995    4.982598
C     -2.433363    -1.570983    3.981657
C     -1.619476    -1.675566    2.928564
C     -0.953009    0.944721    3.482663
C     -1.818600    0.827965    4.491050
H     -1.951323    -0.773928    5.908020
H     -3.488832    -0.246060    5.288593
H     -3.143391    -2.380599    4.139615
H     -1.617091    -2.522591    2.251198
H     -0.510470    1.884439    3.174018
H     -2.091163    1.742166    5.014721
S     0.335963    0.443705    -2.546342
C     2.426640    0.430124    -4.977958
C     2.406234    1.554846    -3.976689
C     1.592400    1.659298    -2.923543
C     0.926107    -0.960994    -3.477763
C     1.791631    -0.844069    -4.486189
H     3.461054    0.230498    -5.284788
H     1.922921    0.758179    -5.902892
H     3.116512    2.364288    -4.134413
H     1.590211    2.506097    -2.245893
H     0.483893    -1.900796    -3.168906
H     2.064610    -1.758246    -5.009682
