73
11/21/2023 17:08, XYZ structure generated by mol3D Class, molSimplify
Cr     -0.112608    -0.097373    0.252336
O     0.109419    1.916531    -0.233147
C     0.531925    2.870555    0.464655
N     0.673203    4.113449    0.011210
H     0.814866    2.715771    1.510416
C     0.349382    4.467560    -1.371058
H     0.013310    3.574595    -1.896257
H     1.237454    4.875317    -1.864769
H     -0.437855    5.228576    -1.384739
C     1.166502    5.187794    0.873332
H     2.088483    5.607731    0.458497
H     1.370509    4.798393    1.872772
H     0.418596    5.983884    0.945512
O     1.914115    -0.504061    0.085546
C     2.671277    -0.310054    -0.897420
N     3.988784    -0.486361    -0.866111
H     2.265208    0.023538    -1.857346
C     4.678163    -0.919018    0.350154
H     3.969866    -0.928353    1.177291
H     5.495364    -0.225698    0.571911
H     5.098684    -1.920231    0.206656
C     4.813658    -0.271742    -2.055755
H     5.330567    -1.197968    -2.326632
H     5.560936    0.503169    -1.857758
H     4.186172    0.043067    -2.892067
O     -0.535077    -2.098588    0.523848
C     0.247716    -3.013626    0.880563
N     -0.128588    -4.269186    1.099603
H     1.314651    -2.814244    1.032563
C     -1.521951    -4.690390    0.942785
H     -2.117397    -3.836358    0.624018
H     -1.901333    -5.071611    1.896352
H     -1.582983    -5.488321    0.195821
C     0.830540    -5.292266    1.518480
H     0.857939    -6.102473    0.783072
H     0.535883    -5.705597    2.488237
H     1.827624    -4.855622    1.606316
O     -2.111152    0.187949    0.663345
C     -2.904841    0.955166    0.065729
N     -4.205986    1.033555    0.323897
H     -2.547272    1.624298    -0.725294
C     -4.835672    0.203393    1.351998
H     -5.686812    -0.329705    0.917750
H     -5.195885    0.834214    2.171517
H     -4.105093    -0.511387    1.727444
C     -5.068142    1.978862    -0.386877
H     -5.496288    2.699363    0.317584
H     -5.883370    1.441897    -0.881518
H     -4.488886    2.517982    -1.139458
O     0.446388    0.616790    2.508948
C     -0.231307    0.448077    3.539797
N     0.205224    0.625775    4.792887
H     -1.281531    0.125720    3.477157
C     1.579531    1.039568    5.064693
H     2.123940    1.085651    4.122236
H     2.059154    0.316897    5.733182
H     1.590986    2.022561    5.548599
C     -0.669713    0.422986    5.944717
H     -0.263942    -0.356620    6.598407
H     -1.663540    0.119361    5.607560
H     -0.760706    1.349637    6.521665
O     -0.132491    -0.237801    -2.182988
C     -0.606742    -1.125181    -2.916258
N     -0.697321    -1.064285    -4.250648
H     -1.002301    -2.059212    -2.488494
C     -0.228141    0.105511    -4.988962
H     -1.043798    0.515796    -5.593869
H     0.592807    -0.175108    -5.658157
H     0.114677    0.855415    -4.277036
C     -1.259113    -2.163296    -5.032553
H     -0.512093    -2.550753    -5.733520
H     -2.127528    -1.817272    -5.603070
H     -1.572266    -2.971088    -4.367157
