25
11/21/2023 17:08, XYZ structure generated by mol3D Class, molSimplify
Cr     0.001829    0.002280    0.002264
S     -0.460187    2.805824    0.486606
C     -1.221097    3.342798    1.822634
H     -1.672112    2.681431    2.562610
H     -1.300929    4.413887    2.011902
S     2.507661    0.400253    -0.378685
C     2.871193    1.838050    -1.054579
H     3.916449    2.090223    -1.235913
H     2.124017    2.576884    -1.340957
S     0.462129    -2.802162    -0.482742
C     1.220687    -3.340423    -1.819570
H     1.671238    -2.679925    -2.560597
H     1.299327    -4.411680    -2.008357
S     -2.503999    -0.397062    0.382948
C     -2.866960    -1.834579    1.059749
H     -3.912051    -2.087505    1.240984
H     -2.119355    -2.572691    1.346843
S     0.409691    -0.371700    2.512207
C     1.723397    -1.274885    2.850456
H     2.377054    -1.702131    2.090660
H     1.979548    -1.470925    3.892098
S     -0.406455    0.375635    -2.507930
C     -1.719122    1.280327    -2.846153
H     -1.975296    1.475764    -3.887901
H     -2.372077    1.709144    -2.086629
