55
11/21/2023 17:08, XYZ structure generated by mol3D Class, molSimplify
Cr     -0.020965    0.002143    -0.077226
N     -0.091174    2.145121    -0.439632
N     2.040579    0.607571    0.021673
C     -1.180095    2.906053    -0.667922
C     -1.077593    4.265430    -0.933897
C     0.209358    4.808758    -0.955936
N     1.296401    4.064700    -0.725143
N     3.497464    2.483111    -0.200118
C     4.545316    1.692940    0.056866
C     4.396718    0.327592    0.312554
C     3.104212    -0.178810    0.283133
C     1.108555    2.776757    -0.477128
C     2.298091    1.920209    -0.207399
H     2.898939    -1.226106    0.473280
H     5.246090    -0.311733    0.525505
H     5.522269    2.170007    0.058128
H     -2.141954    2.406301    -0.632796
H     -1.958136    4.870930    -1.117153
H     0.379044    5.862835    -1.161167
N     0.326493    -2.058784    0.625874
N     -0.041351    -0.008704    2.421491
C     0.366837    -3.111832    -0.217760
C     0.520168    -4.414248    0.234857
C     0.629310    -4.585960    1.616689
N     0.587475    -3.553846    2.463752
N     0.742809    -1.430960    4.170845
C     0.672139    -0.406188    5.026423
C     0.242163    0.863357    4.631151
C     -0.103372    1.013914    3.293213
C     0.437021    -2.337408    1.951042
C     0.379680    -1.190574    2.913674
H     -0.438977    1.968612    2.896164
H     0.183420    1.690866    5.329444
H     0.970791    -0.610820    6.051712
H     0.269772    -2.881282    -1.273111
H     0.551038    -5.251196    -0.453619
H     0.750317    -5.571287    2.060542
N     -2.113079    -0.340185    -0.332355
N     -0.315857    -0.489231    -2.412179
C     -2.989079    -0.386889    0.692744
C     -4.334947    -0.651606    0.486200
C     -4.734323    -0.869213    -0.835677
N     -3.871495    -0.832450    -1.855577
N     -2.138711    -0.590196    -3.948511
C     -1.271721    -0.574761    -4.966360
C     0.109725    -0.517346    -4.764179
C     0.545540    -0.471743    -3.444923
C     -2.598689    -0.575059    -1.577700
C     -1.628761    -0.549850    -2.721558
H     1.603917    -0.424955    -3.200584
H     0.809286    -0.507510    -5.592636
H     -1.699002    -0.607982    -5.965627
H     -2.574218    -0.212192    1.680927
H     -5.036630    -0.689533    1.311804
H     -5.770372    -1.082646    -1.087733
