55
11/21/2023 17:08, XYZ structure generated by mol3D Class, molSimplify
Cr     -0.277771    0.171250    -0.297684
S     -0.640910    2.683714    -0.017977
C     -1.759392    3.022621    1.297045
C     -1.189094    3.863883    2.195477
C     0.175004    4.212749    1.875364
C     0.636770    3.622296    0.742407
H     -2.759046    2.614360    1.264267
H     -1.716077    4.249675    3.061341
H     1.593008    3.733085    0.250195
H     0.770196    4.898969    2.468578
S     2.182574    0.704385    -0.660871
C     2.796094    0.189991    -2.227039
C     3.905691    -0.575267    -2.069701
C     4.253939    -0.810122    -0.688930
C     3.397630    -0.232694    0.194282
H     2.325057    0.548271    -3.130722
H     4.484648    -0.954741    -2.904597
H     3.423309    -0.218832    1.274867
H     5.126681    -1.376641    -0.381742
S     0.032640    -2.305299    -0.764495
C     1.335642    -3.217731    -0.029242
C     0.864819    -4.391425    0.465584
C     -0.563262    -4.546271    0.327668
C     -1.170235    -3.491617    -0.276316
H     2.346980    -2.840784    -0.076696
H     1.506210    -5.144168    0.910755
H     -2.207345    -3.361295    -0.551712
H     -1.103318    -5.428450    0.654334
S     -2.783565    -0.380297    -0.156154
C     -3.926575    0.846364    -0.678507
C     -4.856234    1.061654    0.289329
C     -4.622378    0.303680    1.495284
C     -3.521195    -0.488902    1.433350
H     -3.879252    1.239155    -1.684869
H     -5.701971    1.727954    0.157185
H     -3.130142    -1.175430    2.171069
H     -5.270199    0.347675    2.364058
S     0.074079    -0.122687    2.127838
C     1.360695    0.666303    3.020552
C     1.890202    -0.198239    3.925369
C     1.313647    -1.520882    3.871571
C     0.344516    -1.656773    2.930460
H     1.557323    1.717674    2.864307
H     2.660409    0.087073    4.633858
H     -0.253420    -2.519146    2.672110
H     1.616685    -2.329150    4.528066
S     -0.893995    0.611635    -2.765088
C     -0.419487    -0.545328    -3.996719
C     0.174282    0.097826    -5.035265
C     0.317372    1.519236    -4.830800
C     -0.163787    1.949730    -3.634244
H     -0.669708    -1.591050    -3.886384
H     0.495079    -0.411689    -5.937372
H     -0.233374    2.955451    -3.242963
H     0.751101    2.188060    -5.566440
