25
11/21/2023 17:08, XYZ structure generated by mol3D Class, molSimplify
Cr     -0.041111    -0.088167    0.009687
O     0.216518    1.967960    0.296820
C     1.508883    2.545029    0.262472
C     2.558510    1.744651    0.118600
O     2.352026    0.383503    -0.028560
H     -0.474507    2.635342    0.142178
H     1.555578    3.617385    0.392682
H     3.577628    2.112319    0.117282
H     3.192314    -0.100448    -0.096611
O     -0.092789    -2.184573    0.229309
C     -0.077145    -2.628979    1.563885
C     0.024007    -1.704611    2.507724
O     0.013892    -0.362187    2.091638
H     -0.463676    -2.851475    -0.375544
H     -0.119172    -3.697170    1.730176
H     0.080289    -1.893896    3.571437
H     0.398543    0.238625    2.754009
O     -2.433445    -0.032776    -0.449489
C     -2.647292    -0.011359    -1.817607
C     -1.599476    -0.011326    -2.632711
O     -0.303983    -0.061140    -2.066311
H     -3.270910    -0.020098    0.043739
H     -3.669042    -0.005302    -2.177554
H     -1.648522    -0.010560    -3.712758
H     0.380571    0.180188    -2.713767
