61
11/21/2023 17:08, XYZ structure generated by mol3D Class, molSimplify
Cr     -0.008080    0.025392    0.002205
N     0.294120    2.161302    -0.295236
C     0.074996    4.481710    -0.858805
O     1.423169    4.108067    -0.421235
C     1.394199    2.817955    -0.150252
C     -0.714476    3.154071    -0.764574
H     -1.121289    2.839586    -1.728857
H     -1.539363    3.209377    -0.049544
H     0.162525    4.879806    -1.870632
H     -0.279005    5.263968    -0.186186
H     2.332187    2.393841    0.187441
N     2.110081    -0.284802    0.036546
C     4.399367    -0.721354    -0.497212
O     4.138591    -0.623373    0.944666
C     2.851062    -0.381964    1.087752
C     3.006951    -0.489218    -1.133629
H     2.660563    -1.341226    -1.724312
H     2.978881    0.393950    -1.778210
H     4.820364    -1.710447    -0.682314
H     5.138226    0.042657    -0.742551
H     2.485877    -0.267910    2.102033
N     -0.291316    -2.123205    0.287139
C     -0.035381    -4.484183    0.617654
O     -1.433380    -4.046355    0.568886
C     -1.419096    -2.744482    0.359507
C     0.757858    -3.160593    0.505493
H     1.463034    -3.165256    -0.329391
H     1.314596    -2.934973    1.419433
H     0.116679    -5.169998    -0.217680
H     0.107104    -5.015546    1.558916
H     -2.393440    -2.281540    0.260702
N     -2.123656    0.345756    -0.017345
C     -4.395479    0.850398    0.528028
O     -4.163098    0.657846    -0.909292
C     -2.884477    0.377251    -1.058434
C     -2.987074    0.681424    1.148626
H     -2.940868    -0.121778    1.888661
H     -2.620293    1.593277    1.627277
H     -5.116731    0.093565    0.840445
H     -4.829133    1.842876    0.655221
H     -2.540196    0.181223    -2.067557
N     0.047548    0.199677    2.666271
C     -0.341832    -0.054391    5.026784
O     -0.039245    1.322935    4.632128
C     0.148442    1.302245    3.318064
C     -0.280653    -0.832917    3.688498
H     -1.230634    -1.316502    3.439269
H     0.492155    -1.608566    3.693380
H     -1.325358    -0.050483    5.499360
H     0.411506    -0.357674    5.755424
H     0.384339    2.263600    2.872293
N     -0.067552    -0.190356    -2.664920
C     0.400797    -0.084316    -5.022352
O     0.017190    -1.421278    -4.565558
C     -0.199737    -1.321635    -3.259301
C     0.316438    0.772889    -3.734481
H     -0.439862    1.561143    -3.810188
H     1.268518    1.251114    -3.484167
H     -0.302372    0.209064    -5.803081
H     1.404276    -0.159520    -5.444944
H     -0.487384    -2.246328    -2.768743
