37
11/21/2023 17:08, XYZ structure generated by mol3D Class, molSimplify
Cr     -0.017389    -0.137045    -0.111215
P     2.377194    -0.496255    -0.472704
H     3.048847    -0.413917    -1.712938
C     3.506052    -1.385768    0.450134
H     3.274169    -1.637182    1.486788
O     4.684818    -1.757686    -0.022592
H     5.229370    -2.207986    0.649022
P     -2.411913    0.222091    0.250316
H     -3.083705    0.139440    1.490459
C     -3.540641    1.111942    -0.672378
H     -3.308680    1.363650    -1.708944
O     -4.719409    1.483788    -0.199614
H     -5.263900    1.934308    -0.871131
P     0.369720    2.234260    -0.614361
H     -0.614550    3.160121    -1.027157
C     1.789825    3.143488    -0.860092
H     2.761747    2.691560    -0.654327
O     1.775008    4.403162    -1.275344
H     2.671422    4.777459    -1.350287
P     -0.404457    -2.508455    0.391721
H     0.579962    -3.434335    0.804120
C     -1.824548    -3.417609    0.637834
H     -2.796597    -2.965775    0.432453
O     -1.809600    -4.677308    1.052978
H     -2.705995    -5.051603    1.128172
P     0.339236    0.099237    2.290550
H     -0.233323    -0.691730    3.311442
C     0.829956    1.468902    3.186422
H     1.278875    2.319852    2.671942
O     0.703730    1.540708    4.501219
H     1.039770    2.381574    4.862090
P     -0.373884    -0.373534    -2.512930
H     0.198298    0.417525    -3.533959
C     -0.865086    -1.743049    -3.408752
H     -1.313867    -2.593961    -2.894091
O     -0.739351    -1.814791    -4.723605
H     -1.075484    -2.655654    -5.084392
