31
11/21/2023 17:08, XYZ structure generated by mol3D Class, molSimplify
Cr     -0.092875    -0.024034    -0.035499
N     0.092294    2.159157    -0.052250
N     1.530559    2.260528    -0.252991
N     2.123456    1.515615    0.840914
N     2.053965    0.132495    0.417707
H     -0.200273    2.696977    0.773093
H     -0.343035    2.580645    -0.876424
H     1.824880    3.232585    -0.113725
H     3.102271    1.819611    0.871894
H     2.742654    -0.064371    -0.317965
H     2.271111    -0.451877    1.229136
N     -0.024537    -2.201452    0.149502
N     -0.556229    -2.362162    1.493966
N     0.278473    -1.532116    2.340875
N     -0.231914    -0.189002    2.143428
H     0.887445    -2.666260    0.056102
H     -0.683160    -2.673622    -0.474179
H     -0.395695    -3.323846    1.810489
H     0.071879    -1.840007    3.297143
H     -1.140916    -0.068505    2.605852
H     0.434177    0.460177    2.570463
N     -2.182746    0.063448    -0.560873
N     -2.272903    -0.368913    -1.943870
N     -1.294405    0.457882    -2.625048
N     -0.024978    -0.095308    -2.189183
H     -2.633481    0.978554    -0.434032
H     -2.727290    -0.614973    -0.020956
H     -3.177823    -0.075963    -2.327727
H     -1.427259    0.251241    -3.621359
H     0.142750    -1.010317    -2.627311
H     0.695549    0.543386    -2.537621
