49
11/21/2023 17:08, XYZ structure generated by mol3D Class, molSimplify
Cr     0.002395    -0.035541    0.023881
O     0.138066    2.004620    0.382842
C     1.438753    2.539776    0.368639
C     1.358741    3.886436    0.544903
C     -0.032344    4.221532    0.676176
C     -0.743973    3.077356    0.581893
H     2.191378    4.574601    0.590623
H     -1.788998    2.813514    0.600345
H     -0.440711    5.211647    0.825785
C     2.498177    1.578047    0.234237
O     2.091893    0.235958    0.160046
C     3.257481    -0.538595    0.093246
C     4.333809    0.278806    0.113139
C     3.857952    1.630200    0.205021
H     4.463759    2.524308    0.254180
H     3.114195    -1.605475    0.040608
H     5.367856    -0.035252    0.074195
O     0.384864    -2.102622    0.008547
C     0.208374    -2.843007    1.187662
C     0.451817    -4.156098    0.927392
C     0.786590    -4.258071    -0.465183
C     0.735478    -3.014569    -0.994223
H     0.398249    -4.968696    1.638489
H     0.878295    -2.594261    -1.976377
H     1.029367    -5.165264    -1.001296
C     -0.155097    -2.036768    2.314633
O     -0.344456    -0.684360    1.991295
C     -0.702981    -0.029830    3.176520
C     -0.741337    -0.929600    4.185298
C     -0.393639    -2.212772    3.642374
H     -0.329733    -3.146047    4.184271
H     -0.853509    1.034147    3.091645
H     -0.983192    -0.714509    5.217113
O     -2.092952    0.044247    -0.264578
C     -2.488787    0.383098    -1.567666
C     -3.848060    0.446567    -1.612527
C     -4.332791    0.130772    -0.298661
C     -3.261708    -0.116355    0.488525
H     -4.448803    0.675640    -2.481784
H     -3.122168    -0.395911    1.520110
H     -5.368587    0.086409    0.008749
C     -1.422041    0.519234    -2.521407
O     -0.135552    0.250078    -2.019419
C     0.756516    0.352601    -3.098114
C     0.064543    0.679331    -4.211006
C     -1.323429    0.783412    -3.852273
H     -2.142347    1.016163    -4.518710
H     1.793899    0.192637    -2.851374
H     0.483748    0.834541    -5.195724
