49
11/21/2023 17:08, XYZ structure generated by mol3D Class, molSimplify
Cr     0.001613    0.006922    -0.011357
N     0.137090    2.144898    0.456470
C     -0.654546    4.287473    0.884320
S     1.052614    4.467025    1.088950
C     1.254892    2.798786    0.723243
C     -0.952761    3.000559    0.551765
H     2.233677    2.341232    0.715881
H     -1.943865    2.612617    0.371594
H     -1.331360    5.120732    1.016135
N     2.162339    -0.179344    0.413652
C     4.431758    -0.049701    -0.075827
S     4.419913    -0.823300    1.470846
C     2.704131    -0.742350    1.479780
C     3.156153    0.214828    -0.475307
H     2.128784    -1.135481    2.305566
H     2.881598    0.698238    -1.402217
H     5.356556    0.164431    -0.594285
N     -0.134175    -2.131381    -0.480563
C     0.654710    -4.276633    -0.899851
S     -1.051507    -4.452228    -1.115436
C     -1.251851    -2.782854    -0.753851
C     0.954031    -2.989981    -0.567257
H     -2.229439    -2.322715    -0.753934
H     1.945009    -2.604371    -0.381470
H     1.330236    -5.111835    -1.025865
N     -2.159189    0.193300    -0.438939
C     -4.429152    0.067843    0.048725
S     -4.414859    0.838419    -1.499439
C     -2.699215    0.754959    -1.506700
C     -3.154324    -0.197696    0.449984
H     -2.122547    1.145451    -2.332809
H     -2.881436    -0.679789    1.378061
H     -5.354721    -0.144031    0.566729
N     -0.341582    -0.507784    2.080127
C     -0.903892    -1.752239    3.961493
S     -0.733489    -0.154842    4.602008
C     -0.344701    0.414406    3.027997
C     -0.664432    -1.747550    2.620690
H     -0.116933    1.455260    2.852066
H     -0.700792    -2.611584    1.974517
H     -1.165425    -2.590263    4.593427
N     0.344181    0.520977    -2.104107
C     0.880548    1.770440    -3.989759
S     0.739505    0.168396    -4.625573
C     0.363431    -0.403654    -3.049404
C     0.643160    1.765047    -2.648567
H     0.156292    -1.448343    -2.870726
H     0.664049    2.631617    -2.005109
H     1.125351    2.611474    -4.624394
