49
11/21/2023 17:08, XYZ structure generated by mol3D Class, molSimplify
Cr     -0.152028    0.068809    -0.044358
O     0.272880    2.443512    -0.100037
C     1.608580    2.702042    -0.402300
C     1.771869    4.039034    -0.619087
C     0.487402    4.650924    -0.447279
C     -0.390840    3.665371    -0.144168
H     2.694549    4.538271    -0.880548
H     -1.450012    3.632395    0.059232
H     0.256171    5.702376    -0.547335
C     2.494061    1.569519    -0.414822
O     1.889849    0.295754    -0.371494
C     2.926328    -0.656883    -0.403149
C     4.108708    -0.010851    -0.481497
C     3.842267    1.400912    -0.484374
H     4.578314    2.191769    -0.524284
H     2.608863    -1.686468    -0.356186
H     5.082603    -0.479084    -0.525500
O     -0.031669    -2.273697    0.649931
C     0.183035    -2.406754    2.017580
C     0.259419    -3.731355    2.338603
C     0.086635    -4.465843    1.120672
C     -0.086434    -3.560405    0.127611
H     0.417135    -4.145021    3.324952
H     -0.261320    -3.622829    -0.934881
H     0.088627    -5.541446    1.011254
C     0.280333    -1.183012    2.765282
O     0.079110    0.010849    2.037634
C     0.219256    1.074372    2.952529
C     0.481497    0.571050    4.175973
C     0.523332    -0.860171    4.063986
H     0.716234    -1.560711    4.864539
H     0.104318    2.057515    2.527493
H     0.635100    1.148177    5.077514
O     -2.208705    -0.173441    -0.157778
C     -2.755872    -0.355418    -1.443181
C     -4.098643    -0.531401    -1.321957
C     -4.419239    -0.461528    0.077240
C     -3.272199    -0.250048    0.756678
H     -4.794705    -0.698464    -2.132300
H     -2.995245    -0.141586    1.792873
H     -5.403169    -0.564859    0.513857
C     -1.800278    -0.305458    -2.513541
O     -0.456365    -0.206000    -2.104952
C     0.323535    -0.163037    -3.272039
C     -0.490555    -0.244746    -4.346331
C     -1.843674    -0.332160    -3.872340
H     -2.735001    -0.401838    -4.480335
H     1.388669    -0.084007    -3.127115
H     -0.173715    -0.242041    -5.380297
