37
11/21/2023 17:08, XYZ structure generated by mol3D Class, molSimplify
Cr     -0.017581    -0.137027    -0.111202
P     2.510137    -0.576223    -0.466428
H     3.044746    -1.275030    -1.572336
C     3.611445    -1.045592    0.757301
H     3.450941    -0.703677    1.781642
O     4.699523    -1.752435    0.514253
H     5.265961    -1.848085    1.302544
P     -2.545214    0.302259    0.244094
H     -3.079930    1.000739    1.350150
C     -3.646644    0.771549    -0.979539
H     -3.485994    0.429732    -2.003888
O     -4.734867    1.478160    -0.736428
H     -5.301312    1.573794    -1.524716
P     0.365398    2.669652    -0.584862
H     -0.700586    3.514425    -0.991100
C     1.621968    3.421740    -1.470025
H     2.633023    3.012084    -1.415073
O     1.456499    4.510305    -2.208328
H     2.295075    4.825225    -2.592474
P     -0.400259    -2.943764    0.362594
H     0.665781    -3.788289    0.769196
C     -1.656881    -3.696038    1.247520
H     -2.667976    -3.286529    1.192202
O     -1.491409    -4.784505    1.985975
H     -2.330027    -5.099550    2.369925
P     0.368012    0.220446    2.424621
H     -0.086944    -0.684345    3.410565
C     0.144652    1.711448    3.239615
H     0.357266    2.645178    2.715093
O     -0.216232    1.786640    4.506188
H     -0.212777    2.702782    4.841752
P     -0.403059    -0.494516    -2.647023
H     0.051846    0.410466    -3.632819
C     -0.178953    -1.985421    -3.462001
H     -0.391365    -2.919249    -2.937568
O     0.182241    -2.060460    -4.728491
H     0.179129    -2.976591    -5.064089
