73
11/21/2023 17:08, XYZ structure generated by mol3D Class, molSimplify
Cr     0.008450    -0.007326    0.053553
O     0.010574    2.405917    0.054236
C     0.011678    5.358423    0.040009
C     1.232998    4.490554    -0.101983
C     1.195888    3.162751    -0.089002
C     -1.173838    3.164930    0.193312
C     -1.209885    4.492820    0.193423
H     -0.093218    6.022001    -0.830841
H     0.116711    6.033266    0.902108
H     2.205163    4.960736    -0.217794
H     2.049694    2.505389    -0.178121
H     -2.028201    2.509447    0.291020
H     -2.181349    4.964880    0.307485
O     2.156859    -0.004904    0.051560
C     5.112540    -0.060409    0.068644
C     4.247761    0.337449    1.231384
C     2.921576    0.352693    1.202003
C     2.921710    -0.366545    -1.097771
C     4.247713    -0.401936    -1.111828
H     5.752303    -0.912913    0.339173
H     5.808934    0.750418    -0.188918
H     4.718772    0.634424    2.164015
H     2.269345    0.629783    2.014361
H     2.268211    -0.593975    -1.924187
H     4.718291    -0.693070    -2.046536
O     0.005970    -2.415510    0.053410
C     0.004159    -5.368181    0.058885
C     -1.215884    -4.501130    -0.097854
C     -1.179105    -3.173465    -0.094607
C     1.190366    -3.174337    0.202269
C     1.225509    -4.502045    0.210416
H     0.113078    -6.039996    -0.805087
H     -0.105786    -6.034719    0.926828
H     -2.187192    -4.972043    -0.217852
H     -2.031530    -2.516294    -0.195877
H     2.043982    -2.518044    0.299496
H     2.196468    -4.973705    0.330304
O     -2.139559    -0.003790    0.055855
C     -5.095552    -0.039111    0.044436
C     -4.230730    -0.392062    1.221552
C     -2.904550    -0.365611    1.205031
C     -2.903999    0.361433    -1.092279
C     -4.230311    0.355374    -1.119119
H     -5.784491    0.776632    0.306535
H     -5.743016    -0.885311    -0.227466
H     -4.701436    -0.684743    2.155710
H     -2.251146    -0.601931    2.029038
H     -2.251446    0.635495    -1.905409
H     -4.701081    0.657267    -2.050293
O     0.007232    0.001028    2.260752
C     0.262195    0.040844    5.206247
C     -0.045212    1.235420    4.347562
C     -0.158172    1.192274    3.025900
C     0.239899    -1.179714    3.024750
C     0.357843    -1.187896    4.346422
H     -0.512846    -0.088154    5.975217
H     1.196584    0.196082    5.765376
H     -0.194156    2.202161    4.820033
H     -0.379903    2.026842    2.380228
H     0.290769    -2.039116    2.375893
H     0.527111    -2.152187    4.816840
O     0.009895    0.001474    -2.153416
C     -0.257799    0.043538    -5.097604
C     0.057655    1.236653    -4.239803
C     0.176264    1.192546    -2.918657
C     -0.227344    -1.178579    -2.917143
C     -0.351267    -1.185708    -4.238256
H     0.512488    -0.086768    -5.871102
H     -1.194985    0.201485    -5.651295
H     0.208374    2.202966    -4.712589
H     0.404551    2.026014    -2.273802
H     -0.275864    -2.038306    -2.268547
H     -0.523512    -2.149494    -4.708622
