49
11/21/2023 17:08, XYZ structure generated by mol3D Class, molSimplify
Cr     0.014040    -0.222917    -0.071548
P     -0.507133    2.202017    -0.388450
H     -1.405091    2.732587    0.562116
H     -1.228819    2.544359    -1.553567
C     0.753789    3.582144    -0.402838
H     1.324347    3.533694    0.538948
H     1.454238    3.396751    -1.231776
O     0.017339    4.766210    -0.548745
H     0.620463    5.511370    -0.713878
P     2.469323    0.133939    -0.394037
H     3.078787    1.023150    0.517731
H     2.720959    0.864692    -1.577473
C     3.835061    -1.134425    -0.544388
H     3.872679    -1.711940    0.392314
H     3.571143    -1.825270    -1.361130
O     5.000985    -0.396955    -0.793143
H     5.775817    -0.984442    -0.760656
P     0.535131    -2.647863    0.245363
H     1.257064    -2.990216    1.410324
H     1.432839    -3.178505    -0.705398
C     -0.725867    -4.027916    0.260073
H     -1.426174    -3.842423    1.089110
H     -1.296571    -3.979510    -0.681626
O     0.010545    -5.212009    0.405958
H     -0.592600    -5.957137    0.571159
P     -2.441177    -0.579872    0.250929
H     -2.692908    -1.309450    1.435071
H     -3.050220    -1.470189    -0.660043
C     -3.807278    0.688318    0.399535
H     -3.543994    1.379811    1.215928
H     -3.844463    1.265128    -0.537617
O     -4.973187    -0.049228    0.648153
H     -5.748098    0.538120    0.615037
P     0.389551    0.190601    2.372024
H     1.717721    0.102217    2.843197
H     -0.149618    -0.887138    3.111166
C     -0.238111    1.601449    3.424319
H     0.242302    2.530371    3.078943
H     -1.322791    1.695854    3.253506
O     0.093510    1.256664    4.741462
H     -0.121790    1.992660    5.340238
P     -0.361423    -0.636513    -2.515221
H     0.177846    0.441147    -3.254403
H     -1.689595    -0.547982    -2.986368
C     0.265997    -2.047487    -3.567493
H     1.350648    -2.142138    -3.396640
H     -0.214638    -2.976299    -3.222130
O     -0.065507    -1.702638    -4.884646
H     0.149589    -2.438709    -5.483403
