73
11/21/2023 17:08, XYZ structure generated by mol3D Class, molSimplify
Cr     -0.000300    0.000071    0.000229
O     1.916878    -0.518513    -0.230963
N     2.896081    0.151531    -0.868566
C     2.713427    0.642781    -2.118885
C     3.769157    1.255717    -2.778760
C     5.017450    1.355525    -2.161493
C     5.174369    0.833770    -0.874749
C     4.096960    0.235754    -0.242955
O     -1.917403    0.518633    0.231578
O     0.356986    1.911527    -0.474636
O     -0.357535    -1.911294    0.475140
O     0.248087    0.373193    1.932770
O     -0.248464    -0.373139    -1.932388
N     -2.896533    -0.151665    0.869050
N     0.381790    2.979457    0.345434
N     -0.382182    -2.979185    -0.345007
N     1.251930    -0.027183    2.741008
N     -1.251776    0.027252    -2.741264
C     -2.713838    -0.642794    2.119410
C     -4.097324    -0.236208    0.243322
C     -0.700421    3.303017    1.093421
C     1.484419    3.768436    0.316122
C     0.700445    -3.303102    -1.092231
C     -1.485102    -3.767770    -0.316490
C     1.596493    -1.334712    2.838237
C     1.833399    0.917552    3.521095
C     -1.597528    1.334537    -2.837547
C     -1.831560    -0.917250    -3.522899
C     -3.769481    -1.255944    2.779219
C     -5.174638    -0.834459    0.875060
C     -0.689895    4.458891    1.860159
C     1.528943    4.933575    1.063992
C     0.690042    -4.458947    -1.859010
C     -1.529528    -4.932870    -1.064426
C     2.573413    -1.725268    3.742681
C     2.807103    0.563080    4.440045
C     -2.573950    1.725009    -3.742572
C     -2.804691    -0.562844    -4.442478
C     -5.017701    -1.356094    2.161851
C     0.430666    5.291912    1.850524
C     -0.430823    -5.291572    -1.850191
C     3.190438    -0.775362    4.558599
C     -3.189242    0.775334    -4.560063
H     1.723977    0.503374    -2.532608
H     3.606050    1.636409    -3.781298
H     5.853219    1.819519    -2.675025
H     6.127313    0.877069    -0.358551
H     4.135223    -0.210962    0.741513
H     -1.724441    -0.503152    2.533195
H     -4.135602    0.210454    -0.741170
H     -1.524659    2.606632    1.025804
H     2.276132    3.428897    -0.338069
H     1.524876    -2.606997    -1.024041
H     -2.277156    -3.427977    0.337154
H     1.057651    -2.004686    2.181613
H     1.460633    1.923238    3.382086
H     -1.059927    2.004414    -2.179811
H     -1.457978    -1.922715    -3.384468
H     -3.606372    -1.636545    3.781791
H     -6.127528    -0.878024    0.358785
H     -1.568622    4.704046    2.446945
H     2.416334    5.555364    1.014856
H     1.569096    -4.704407    -2.445178
H     -2.417172    -5.554349    -1.015935
H     2.830529    -2.776932    3.809888
H     3.247802    1.335371    5.061143
H     -2.832036    2.776486    -3.808982
H     -3.244015    -1.334959    -5.064767
H     -5.853399    -1.820260    2.675342
H     0.444795    6.206830    2.433915
H     -0.444864    -6.206468    -2.433619
H     3.945400    -1.071728    5.279555
H     -3.943801    1.071682    -5.281449
