55
11/21/2023 17:08, XYZ structure generated by mol3D Class, molSimplify
Cr     -0.072825    0.041879    0.043655
N     -0.035196    2.091656    -0.204331
N     1.995653    0.354402    -0.213023
C     -1.087252    2.944219    -0.246763
C     -0.906926    4.300014    -0.479037
C     0.407740    4.744870    -0.669265
N     1.449136    3.903251    -0.630712
N     3.565119    2.128903    -0.486887
C     4.571329    1.246490    -0.444910
C     4.337455    -0.124891    -0.287858
C     3.015979    -0.534810    -0.171757
C     1.201465    2.626892    -0.406660
C     2.335322    1.664012    -0.369083
H     2.762285    -1.581618    -0.050940
H     5.149718    -0.843344    -0.254588
H     5.576794    1.649946    -0.539057
H     -2.069305    2.514561    -0.085825
H     -1.751625    4.980026    -0.511742
H     0.636051    5.791434    -0.856990
N     0.191113    -2.022945    0.355123
N     0.172794    0.003236    2.093409
C     0.153892    -3.041335    -0.536628
C     0.272893    -4.363319    -0.129283
C     0.429387    -4.599902    1.241796
N     0.467623    -3.595616    2.126606
N     0.604044    -1.479997    3.904749
C     0.637624    -0.438533    4.746541
C     0.442218    0.875505    4.301874
C     0.210165    1.055419    2.945984
C     0.346778    -2.365213    1.664232
C     0.379714    -1.232690    2.628381
H     0.045705    2.036981    2.516485
H     0.471049    1.720097    4.982186
H     0.825568    -0.666205    5.793204
H     0.033999    -2.785437    -1.582998
H     0.242565    -5.174098    -0.849548
H     0.526353    -5.606017    1.642948
N     -2.121560    -0.200860    0.006489
N     -0.388177    -0.215286    -2.023619
C     -2.972365    -0.242954    1.060159
C     -4.328728    -0.473202    0.881981
C     -4.776680    -0.660787    -0.432093
N     -3.936927    -0.622998    -1.475011
N     -2.162896    -0.482602    -3.593819
C     -1.279492    -0.443845    -4.599303
C     0.092481    -0.292105    -4.364636
C     0.502257    -0.177400    -3.043006
C     -2.659729    -0.401784    -1.229382
C     -1.697944    -0.366708    -2.363828
H     1.549352    -0.060428    -2.788472
H     0.811400    -0.261651    -5.176597
H     -1.682532    -0.536324    -5.605089
H     -2.541078    -0.083230    2.041665
H     -5.007139    -0.505873    1.727966
H     -5.824141    -0.845667    -0.658577
