31
11/21/2023 17:08, XYZ structure generated by mol3D Class, molSimplify
Cr     -0.016611    -0.011795    0.004788
N     0.170316    2.103485    -0.212137
N     1.567791    2.195668    -0.608837
N     2.268554    1.499475    0.440966
N     2.105508    0.092966    0.090849
H     -0.035291    2.689034    0.612334
H     -0.396448    2.453054    -0.995247
H     1.874163    3.176353    -0.581916
H     3.260216    1.760867    0.369520
H     2.637051    -0.152375    -0.759037
H     2.489324    -0.462011    0.866083
N     -0.173812    -2.130863    0.223980
N     -0.628195    -2.217429    1.604196
N     0.366614    -1.476207    2.338232
N     -0.020993    -0.084738    2.130566
H     0.675735    -2.694188    0.062176
H     -0.921020    -2.515177    -0.367921
H     -0.581573    -3.192319    1.926348
H     0.255564    -1.720747    3.330662
H     -0.903010    0.139150    2.617254
H     0.714372    0.503629    2.542282
N     -2.145425    0.032673    -0.176266
N     -2.308348    -0.482231    -1.529698
N     -1.499462    0.402049    -2.330932
N     -0.143022    -0.091483    -2.124773
H     -2.615025    0.943495    -0.056275
H     -2.594105    -0.637678    0.460376
H     -3.283030    -0.358851    -1.832213
H     -1.774201    0.258226    -3.311129
H     -0.001448    -1.009398    -2.573872
H     0.497755    0.576922    -2.570806
