25
11/21/2023 17:08, XYZ structure generated by mol3D Class, molSimplify
Cr     0.001327    0.001840    0.002013
S     -0.374430    2.496177    0.402049
C     -1.163494    2.915504    1.769757
H     -1.545054    2.207848    2.505718
H     -1.322197    3.979040    1.966816
S     2.495611    0.402024    -0.373901
C     2.914823    1.769378    -1.163618
H     3.978318    1.966691    -1.322289
H     2.207103    2.505116    -1.545505
S     0.376060    -2.492671    -0.398837
C     1.166700    -2.911895    -1.765662
H     1.549953    -2.204403    -2.500904
H     1.324754    -3.975491    -1.962914
S     -2.493128    -0.399144    0.376854
C     -2.912189    -1.765535    1.168287
H     -3.975686    -1.963064    1.326686
H     -2.204371    -2.500235    1.552000
S     0.401358    -0.374147    2.496331
C     1.769107    -1.163205    2.915574
H     2.505046    -1.544651    2.207831
H     1.966234    -1.321967    3.979091
S     -0.399514    0.376776    -2.492462
C     -1.766408    1.167245    -2.911662
H     -1.963670    1.325347    -3.975251
H     -2.501678    1.550255    -2.204054
