37
11/21/2023 17:08, XYZ structure generated by mol3D Class, molSimplify
Cr     -0.017344    -0.136962    -0.111022
N     0.238087    1.896320    -0.460772
H     -0.619880    2.445581    -0.353313
C     1.221583    2.647019    -0.844441
H     2.209920    2.223084    -1.020227
O     1.041286    3.930063    -1.024567
H     1.838965    4.407043    -1.327995
N     2.012394    -0.484231    -0.386637
H     2.256855    -0.599920    -1.374516
C     3.048840    -0.645146    0.373199
H     2.957984    -0.571302    1.456566
O     4.220583    -0.895598    -0.151634
H     4.933742    -1.019641    0.505644
N     -0.273493    -2.170147    0.238968
H     0.584804    -2.719250    0.133388
C     -1.257563    -2.921012    0.620807
H     -2.246333    -2.497246    0.794538
O     -1.077316    -4.203980    0.801558
H     -1.875467    -4.681060    1.103583
N     -2.047211    0.209872    0.164708
H     -2.291489    0.325759    1.152612
C     -3.083817    0.370514    -0.594953
H     -2.993166    0.296472    -1.678325
O     -4.255509    0.620886    -0.069948
H     -4.968794    0.744748    -0.727121
N     0.256035    0.151313    1.931972
H     0.265514    -0.722390    2.466364
C     0.356163    1.175933    2.718056
H     0.348029    2.188566    2.315550
O     0.470685    1.008624    4.010393
H     0.524352    1.842693    4.517588
N     -0.291036    -0.425114    -2.153993
H     -0.302905    0.448731    -2.688091
C     -0.389111    -1.449720    -2.940351
H     -0.378362    -2.462452    -2.538150
O     -0.504719    -1.282289    -4.232579
H     -0.556685    -2.116323    -4.740010
