49
11/21/2023 17:08, XYZ structure generated by mol3D Class, molSimplify
Cr     0.013969    -0.222978    -0.071737
P     -0.462224    2.262856    -0.478101
H     -1.200004    2.760074    0.615819
H     -1.424550    2.462434    -1.491519
C     0.712372    3.773612    -0.752372
H     1.486491    3.703223    0.017546
H     1.173315    3.674082    -1.741927
O     -0.021942    4.924973    -0.558872
H     -0.282308    5.333003    -1.403253
P     2.522868    0.190252    -0.440766
H     2.891902    1.349980    0.271099
H     2.816639    0.633926    -1.748641
C     4.062954    -0.901635    -0.015700
H     3.880940    -1.300713    0.986149
H     4.107157    -1.726774    -0.735968
O     5.173258    -0.085700    0.013718
H     5.688251    -0.147641    -0.809569
P     0.490393    -2.708720    0.334709
H     1.452755    -2.908183    1.348110
H     1.228178    -3.205987    -0.759180
C     -0.684182    -4.219526    0.609122
H     -1.145108    -4.119896    1.598670
H     -1.458288    -4.149165    -0.160805
O     0.050111    -5.370884    0.415694
H     0.310647    -5.778777    1.260087
P     -2.495068    -0.636083    0.297372
H     -2.788897    -1.079426    1.605345
H     -2.864048    -1.796016    -0.414187
C     -4.035154    0.455682    -0.128044
H     -4.079338    1.281056    0.591960
H     -3.853129    0.854437    -1.130018
O     -5.145489    -0.360210    -0.157234
H     -5.660348    -0.298197    0.666131
P     0.422708    0.157666    2.441281
H     1.685778    -0.367381    2.782979
H     -0.382220    -0.682948    3.240900
C     0.490519    1.785935    3.484454
H     1.080800    2.496517    2.898447
H     -0.532157    2.165623    3.593016
O     1.148856    1.518107    4.665123
H     0.527739    1.377628    5.400811
P     -0.394888    -0.603744    -2.584760
H     0.409932    0.236858    -3.384495
H     -1.657997    -0.078692    -2.926302
C     -0.462918    -2.231939    -3.627830
H     0.559576    -2.612266    -3.735834
H     -1.053926    -2.942185    -3.042127
O     -1.120430    -1.963590    -4.808871
H     -0.498838    -1.824584    -5.544432
