37
11/21/2023 17:08, XYZ structure generated by mol3D Class, molSimplify
Cr     -0.017546    -0.136842    -0.110641
N     0.237849    1.890561    -0.459921
H     -0.617014    2.443451    -0.345433
C     1.219418    2.639010    -0.853897
H     2.205186    2.212621    -1.037881
O     1.040058    3.922164    -1.034287
H     1.835965    4.397297    -1.345237
N     2.002035    -0.482004    -0.381955
H     2.246708    -0.600751    -1.369555
C     3.040082    -0.640430    0.377555
H     2.950283    -0.563334    1.460693
O     4.210845    -0.891765    -0.148562
H     4.925422    -1.013918    0.507679
N     -0.273489    -2.164267    0.238931
H     0.582457    -2.716427    0.129250
C     -1.256461    -2.913432    0.627974
H     -2.243534    -2.487820    0.806660
O     -1.076912    -4.196369    0.809783
H     -1.873964    -4.672026    1.116973
N     -2.037243    0.207972    0.160733
H     -2.281742    0.326678    1.148388
C     -3.075404    0.366494    -0.598590
H     -2.985810    0.289403    -1.681747
O     -4.246090    0.617816    -0.072282
H     -4.960762    0.740032    -0.728407
N     0.255944    0.153911    1.926608
H     0.262439    -0.718908    2.462618
C     0.359716    1.178824    2.712255
H     0.355703    2.191175    2.309038
O     0.473019    1.011981    4.004817
H     0.529458    1.846242    4.511420
N     -0.291563    -0.428027    -2.147823
H     -0.303386    0.445037    -2.683323
C     -0.390562    -1.453017    -2.933971
H     -0.380710    -2.465562    -2.531338
O     -0.506102    -1.286039    -4.226322
H     -0.558674    -2.120291    -4.733358
