31
11/21/2023 17:08, XYZ structure generated by mol3D Class, molSimplify
Cr     -0.064318    0.011900    -0.107188
P     -0.094225    2.604544    0.213457
H     -0.782130    3.433523    -0.692902
H     -0.513415    3.127171    1.456729
N     1.527045    3.073998    -0.008541
H     1.779453    3.592923    -0.851047
N     2.444025    2.097608    0.428068
H     3.302957    2.506714    0.796484
P     2.451283    0.585274    -0.381015
H     3.109206    0.636457    -1.637823
H     3.367565    -0.156114    0.387355
P     0.357162    -2.562088    -0.014848
H     1.497129    -3.073246    -0.672447
H     -0.646439    -3.461281    -0.421171
N     0.541257    -2.922614    1.640657
H     -0.217869    -3.408362    2.121492
N     1.158121    -1.873683    2.350116
H     1.735764    -2.206512    3.122326
P     0.359024    -0.360600    2.412550
H     1.319903    0.463006    3.026455
H     -0.695266    -0.329372    3.362998
P     -2.642867    -0.316040    -0.066597
H     -3.156023    -1.549178    0.393319
H     -3.467551    0.609370    0.601117
N     -3.123993    -0.148161    -1.690012
H     -3.614892    0.699665    -1.977530
N     -2.175023    -0.661721    -2.589482
H     -2.592016    -1.109258    -3.405429
P     -0.615593    0.035691    -2.633468
H     0.086025    -0.866755    -3.454510
H     -0.553418    1.219984    -3.414808
