43
11/21/2023 17:08, XYZ structure generated by mol3D Class, molSimplify
Cr     -0.001197    -0.001890    0.000393
N     1.465139    0.268864    1.463006
N     1.597708    1.527211    1.995553
N     2.508108    1.529807    2.892945
N     2.983495    0.267368    2.963827
C     2.345284    -0.508985    2.087732
H     3.727178    0.038790    3.623377
H     2.524949    -1.559767    1.915459
N     -0.695755    -1.677287    1.034930
N     -0.756845    -1.598718    2.403549
N     -1.179320    -2.703673    2.887723
N     -1.399395    -3.525378    1.838266
C     -1.103700    -2.898133    0.699656
H     -1.744915    -4.472003    1.995616
H     -1.194496    -3.304510    -0.296773
N     1.270305    -1.235680    -1.091484
N     1.950814    -2.213656    -0.411233
N     2.667183    -2.893932    -1.222227
N     2.462285    -2.369743    -2.450877
C     1.604758    -1.351966    -2.373827
H     2.941859    -2.764294    -3.259909
H     1.263183    -0.737239    -3.193323
N     -1.467537    -0.272616    -1.462157
N     -1.600318    -1.531071    -1.994492
N     -2.510811    -1.533707    -2.891794
N     -2.986058    -0.271254    -2.962848
C     -2.347659    0.505183    -2.086939
H     -3.729767    -0.042689    -3.622376
H     -2.527217    1.556017    -1.914863
N     0.693514    1.673068    -1.034533
N     0.754371    1.594321    -2.403218
N     1.177173    2.699053    -2.887537
N     1.397838    3.520808    -1.838227
C     1.102025    2.893789    -0.699516
H     1.743714    4.467255    -1.995750
H     1.193085    3.300245    0.296854
N     -1.272532    1.232068    1.092072
N     -1.952627    2.210325    0.411729
N     -2.668813    2.890905    1.222601
N     -2.464329    2.366602    2.451273
C     -1.607238    1.348446    2.374343
H     -2.943833    2.761357    3.260246
H     -1.266068    0.733616    3.193920
