25
11/21/2023 17:08, XYZ structure generated by mol3D Class, molSimplify
Cr     -0.063081    0.020619    -0.025335
O     0.082784    2.008518    0.252609
C     1.397069    2.548326    0.197472
C     2.353706    1.668170    -0.052847
O     1.901650    0.342575    -0.281808
H     -0.607520    2.701784    0.184964
H     1.503117    3.612428    0.375089
H     3.420710    1.848296    -0.117424
H     2.628912    -0.313724    -0.282781
O     0.173435    -2.009926    0.168191
C     0.190690    -2.515366    1.475504
C     0.106620    -1.597303    2.438897
O     -0.012924    -0.272434    1.987921
H     0.209076    -2.716070    -0.511961
H     0.277294    -3.588902    1.604197
H     0.113478    -1.767707    3.510089
H     0.112624    0.396782    2.693987
O     -2.102638    -0.101470    -0.231035
C     -2.599369    -0.163802    -1.537568
C     -1.676675    -0.086044    -2.498796
O     -0.352358    0.014840    -2.045096
H     -2.808257    -0.163463    0.448239
H     -3.671595    -0.260045    -1.670926
H     -1.844453    -0.102282    -3.570398
H     0.285368    0.257102    -2.750428
