73
11/21/2023 17:08, XYZ structure generated by mol3D Class, molSimplify
Cr     -0.037154    -0.009881    0.185819
O     0.169465    1.922156    -0.206708
C     0.835670    2.806140    0.422654
N     0.930355    4.062525    0.042613
H     1.375011    2.540846    1.335406
C     0.271641    4.573533    -1.167201
H     -0.197836    3.750782    -1.703377
H     1.018633    5.054146    -1.805196
H     -0.478832    5.318149    -0.884886
C     1.693378    5.043089    0.832040
H     2.478942    5.480904    0.210097
H     2.146400    4.558023    1.698431
H     1.023369    5.838305    1.170791
O     1.907297    -0.341556    -0.017104
C     2.653230    -0.162889    -1.033603
N     3.952031    -0.376061    -1.035011
H     2.226418    0.188898    -1.975974
C     4.675311    -0.843751    0.155313
H     3.999771    -0.863708    1.008628
H     5.508325    -0.164618    0.357257
H     5.077000    -1.844360    -0.031919
C     4.757378    -0.173209    -2.250413
H     5.236759    -1.114901    -2.532201
H     5.530618    0.574972    -2.055464
H     4.122066    0.167821    -3.069627
O     -0.414920    -1.932709    0.448354
C     0.372235    -2.818120    0.918764
N     0.009120    -4.056627    1.174204
H     1.414458    -2.568661    1.133030
C     -1.361692    -4.537087    0.952536
H     -1.989840    -3.709439    0.628335
H     -1.749373    -4.954353    1.886271
H     -1.353089    -5.325392    0.193735
C     0.969606    -5.041400    1.698073
H     1.058734    -5.875860    0.996800
H     0.612524    -5.421241    2.659258
H     1.948020    -4.576992    1.833254
O     -1.958703    0.239304    0.565549
C     -2.769948    1.089936    0.074362
N     -4.065529    1.082217    0.303515
H     -2.401671    1.885672    -0.577695
C     -4.710380    0.064351    1.144196
H     -5.510300    -0.415892    0.573440
H     -5.148654    0.542829    2.025392
H     -3.975143    -0.679251    1.446340
C     -4.948682    2.112320    -0.266900
H     -5.439484    2.661262    0.541735
H     -5.712464    1.634773    -0.886842
H     -4.369880    2.808056    -0.876821
O     0.382103    0.299227    2.096556
C     -0.377903    0.255091    3.117920
N     0.054705    0.382631    4.354465
H     -1.453509    0.104754    3.000900
C     1.475329    0.575559    4.676722
H     2.066108    0.526696    3.763816
H     1.794659    -0.207978    5.369838
H     1.609520    1.546998    5.162004
C     -0.874341    0.347825    5.496018
H     -0.596006    -0.469720    6.166605
H     -1.896292    0.195937    5.144556
H     -0.815719    1.293039    6.042794
O     -0.292054    -0.217575    -1.764363
C     -0.854585    -1.151215    -2.423806
N     -1.028591    -1.121513    -3.727996
H     -1.226790    -2.041239    -1.910942
C     -0.597269    0.013411    -4.555543
H     -1.444790    0.362524    -5.152060
H     0.197233    -0.310412    -5.234924
H     -0.239615    0.817302    -3.914725
C     -1.659244    -2.245682    -4.439506
H     -0.955650    -2.656141    -5.169113
H     -2.550342    -1.890461    -4.964168
H     -1.943364    -3.026597    -3.732044
