73
11/21/2023 17:08, XYZ structure generated by mol3D Class, molSimplify
Cr     -0.013163    -0.008154    0.002844
S     0.482261    2.581339    0.368302
C     0.436146    4.956494    2.555891
C     -0.800657    4.541375    1.813931
C     -0.902320    3.560734    0.909848
C     1.695547    2.960147    1.620793
C     1.580212    3.989772    2.467805
H     0.191196    5.146418    3.610356
H     0.767187    5.940844    2.181670
H     -1.703025    5.113898    2.020696
H     -1.817001    3.334634    0.375837
H     2.572501    2.324872    1.574733
H     2.410958    4.156397    3.151349
S     2.576316    -0.373480    0.497814
C     4.951227    -2.561285    0.451426
C     3.984932    -2.472894    1.595799
C     2.955450    -1.625740    1.711205
C     3.555258    -0.915259    -0.886960
C     4.535825    -1.819401    -0.785310
H     5.140892    -3.615804    0.206549
H     5.935748    -2.187219    0.782092
H     4.151778    -3.156240    2.426649
H     2.320477    -1.579392    2.588349
H     3.328995    -0.381351    -1.801655
H     5.108124    -2.026329    -1.687762
S     -0.507970    -2.597619    -0.362908
C     -0.463070    -4.972210    -2.551021
C     -1.607279    -4.005800    -2.461783
C     -1.722151    -2.976398    -1.614454
C     0.876344    -3.576606    -0.905680
C     0.774185    -4.557075    -1.809872
H     -0.218867    -5.161751    -3.605718
H     -0.793608    -5.956751    -2.176904
H     -2.438532    -4.172477    -3.144671
H     -2.599187    -2.341311    -1.567554
H     1.791382    -3.350407    -0.372360
H     1.676476    -5.129392    -2.017439
S     -2.602542    0.357651    -0.491630
C     -4.977484    2.545399    -0.446233
C     -4.562064    1.804175    0.790907
C     -3.581452    0.900112    0.892918
C     -2.981472    1.609536    -1.705497
C     -4.011011    2.456682    -1.590454
H     -5.167363    3.599999    -0.201847
H     -5.961897    2.170980    -0.776840
H     -5.134306    2.011571    1.693301
H     -3.355059    0.366746    1.807895
H     -2.346321    1.563007    -2.582508
H     -4.177733    3.139816    -2.421513
S     -0.378922    -0.503264    2.592075
C     -2.567079    -0.458103    4.966656
C     -2.477975    -1.602312    4.000209
C     -1.630684    -1.717312    2.970798
C     -0.921736    0.881198    3.570931
C     -1.825922    0.779129    4.551419
H     -2.192888    -0.788653    5.951170
H     -3.621757    -0.213842    5.156256
H     -3.160998    -2.433467    4.166862
H     -1.583912    -2.594339    2.335696
H     -0.388438    1.796237    3.344602
H     -2.033519    1.681502    5.123623
S     0.352864    0.486770    -2.586402
C     2.540730    0.440842    -4.961211
C     2.452576    1.584821    -3.994411
C     1.605420    1.700060    -2.964913
C     0.894630    -0.897770    -3.565692
C     1.798834    -0.796018    -4.546181
H     3.595191    0.195974    -5.151183
H     2.166469    0.771939    -5.945515
H     3.136169    2.415552    -4.160850
H     1.559288    2.576941    -2.329543
H     0.360663    -1.812471    -3.339674
H     2.005756    -1.698348    -5.118678
