43
11/21/2023 17:08, XYZ structure generated by mol3D Class, molSimplify
Cr     0.000021    -0.000189    -0.000029
N     1.465846    -0.002824    1.494567
N     2.010903    1.209418    1.830545
N     2.864143    1.061169    2.771377
N     2.886132    -0.256976    3.066459
C     2.028370    -0.912998    2.284384
H     3.505549    -0.605639    3.797779
H     1.839328    -1.976088    2.288722
N     -1.213982    -1.197720    1.213993
N     -1.240952    -0.888295    2.550200
N     -1.994909    -1.711264    3.174479
N     -2.470174    -2.575522    2.251526
C     -1.992260    -2.262563    1.046630
H     -3.100661    -3.326242    2.532616
H     -2.205645    -2.771186    0.118260
N     0.854268    -1.720168    -0.850590
N     1.132270    -2.749671    0.011661
N     1.603590    -3.748105    -0.632920
N     1.637463    -3.384397    -1.932924
C     1.177787    -2.140020    -2.070424
H     1.984209    -4.036588    -2.636123
H     1.099849    -1.587771    -2.995078
N     -1.465852    0.002427    -1.494500
N     -2.011058    -1.209750    -1.830490
N     -2.864492    -1.061421    -2.771130
N     -2.885994    0.256680    -3.066421
C     -2.028253    0.912682    -2.284306
H     -3.505295    0.605388    -3.797818
H     -1.839082    1.975751    -2.288684
N     1.213956    1.197176    -1.214043
N     1.240667    0.887404    -2.550152
N     1.994461    1.710476    -3.174482
N     2.470181    2.574811    -2.251780
C     1.992308    2.262013    -1.046842
H     3.100723    3.325422    -2.533046
H     2.205812    2.770728    -0.118549
N     -0.854235    1.719825    0.850584
N     -1.131924    2.749214    -0.011875
N     -1.603122    3.747746    0.632661
N     -1.637431    3.384323    1.932756
C     -1.177888    2.139906    2.070308
H     -1.984239    4.036618    2.635829
H     -1.100155    1.587723    2.995016
