73
11/21/2023 17:08, XYZ structure generated by mol3D Class, molSimplify
Cr     -0.000105    0.000006    0.000065
O     1.911802    -0.503603    -0.225294
N     2.889707    0.152512    -0.879532
C     2.695458    0.650614    -2.125387
C     3.749803    1.251809    -2.798325
C     5.007717    1.334080    -2.198399
C     5.176140    0.806058    -0.915554
C     4.100510    0.219222    -0.270723
O     -1.911971    0.503667    0.225562
O     0.358368    1.909548    -0.468345
O     -0.358592    -1.909528    0.468488
O     0.257390    0.370018    1.924168
O     -0.257489    -0.370122    -1.924060
N     -2.889862    -0.152494    0.879776
N     0.389097    2.974212    0.355516
N     -0.389297    -2.974177    -0.355396
N     1.248302    -0.046372    2.741657
N     -1.248175    0.046307    -2.741797
C     -2.695584    -0.650632    2.125611
C     -4.100666    -0.219215    0.270971
C     -0.686163    3.292775    1.115540
C     1.490172    3.765037    0.319490
C     0.686022    -3.292786    -1.115315
C     -1.490421    -3.764938    -0.319504
C     1.598869    -1.353632    2.816588
C     1.812692    0.885064    3.550039
C     -1.598984    1.353515    -2.816497
C     -1.812117    -0.885038    -3.550603
C     -3.749911    -1.251869    2.798540
C     -5.176278    -0.806095    0.915793
C     -0.670137    4.445107    1.887478
C     1.540475    4.926329    1.072953
C     0.670004    -4.445105    -1.887274
C     -1.540722    -4.926213    -1.072993
C     2.563910    -1.757516    3.728071
C     2.774340    0.516913    4.476032
C     -2.563813    1.757433    -3.728192
C     -2.773532    -0.516847    -4.476819
C     -5.007830    -1.334148    2.198623
C     0.449359    5.279469    1.871613
C     -0.449542    -5.279402    -1.871543
C     3.163222    -0.821746    4.572820
C     -3.162653    0.821759    -4.573381
H     1.699243    0.523806    -2.526239
H     3.577524    1.637787    -3.797310
H     5.841830    1.789678    -2.722027
H     6.136499    0.836349    -0.412340
H     4.146113    -0.230350    0.712162
H     -1.699366    -0.523818    2.526458
H     -4.146278    0.230377    -0.711903
H     -1.510484    2.596369    1.052185
H     2.276151    3.429679    -0.343716
H     1.510381    -2.596434    -1.051868
H     -2.276452    -3.429540    0.343621
H     1.072952    -2.012407    2.138618
H     1.437518    1.891698    3.424825
H     -1.073409    2.012231    -2.138206
H     -1.436793    -1.891631    -3.425501
H     -3.577616    -1.637876    3.797511
H     -6.136641    -0.836396    0.412586
H     -1.543739    4.686405    2.483458
H     2.426811    5.549194    1.018731
H     1.543655    -4.686445    -2.483165
H     -2.427102    -5.549024    -1.018877
H     2.825944    -2.808964    3.777294
H     3.201895    1.278682    5.118921
H     -2.826048    2.808840    -3.777227
H     -3.200729    -1.278538    -5.120037
H     -5.841928    -1.789781    2.722245
H     0.467951    6.191448    2.459456
H     -0.468127    -6.191369    -2.459406
H     3.909135    -1.128968    5.298627
H     -3.908397    1.129018    -5.299346
