61
11/21/2023 17:08, XYZ structure generated by mol3D Class, molSimplify
Cr     2.643896    0.000044    5.044411
O     3.714030    1.071513    3.756186
O     0.940673    0.830128    4.385349
O     2.866791    1.341878    6.500619
N     5.071330    2.410307    5.001312
N     1.311919    1.459044    2.226411
N     0.827607    2.306817    6.814268
C     4.702623    1.888982    3.838781
C     5.453915    2.278767    2.638407
C     5.338735    1.637519    1.468395
C     0.504597    1.281614    3.263800
C     -0.915457    1.619109    3.095511
C     -1.854391    1.291125    3.992803
C     2.089045    2.114707    7.173996
C     2.583116    2.818198    8.364973
C     3.771930    2.557822    8.924504
O     1.573742    -1.071568    6.332608
O     4.347159    -0.830005    5.703491
O     2.421030    -1.341797    3.588198
N     0.216579    -2.410335    5.087211
N     3.975842    -1.459263    7.862317
N     4.460303    -2.306459    3.274379
C     0.585167    -1.889014    6.249798
C     -0.166337    -2.278814    7.450034
C     -0.051412    -1.637605    8.620091
C     4.783196    -1.281660    6.824989
C     6.203248    -1.619189    6.993271
C     7.142262    -1.291060    6.096115
C     3.198787    -2.114577    2.914790
C     2.704689    -2.818167    1.723878
C     1.515882    -2.557805    1.164328
H     5.840104    3.068618    5.057242
H     4.534381    2.204653    5.840720
H     0.962983    1.839366    1.354017
H     2.310047    1.296874    2.329236
H     0.225412    2.931013    7.339013
H     0.475488    1.877293    5.960303
H     6.143543    3.112431    2.745133
H     5.919105    1.944764    0.603941
H     4.681982    0.781292    1.342043
H     -1.185588    2.141051    2.180817
H     -2.896014    1.549602    3.829041
H     -1.619192    0.746750    4.903217
H     1.922444    3.565880    8.796860
H     4.100817    3.093641    9.809585
H     4.441256    1.799245    8.529229
H     -0.552148    -3.068687    5.031110
H     0.753737    -2.204797    4.247910
H     4.324793    -1.839733    8.734641
H     2.977700    -1.297163    7.759480
H     5.062609    -2.930588    2.749680
H     4.812372    -1.876870    4.128330
H     -0.855937    -3.112481    7.343154
H     -0.631949    -1.944887    9.484419
H     0.605281    -0.781354    8.746593
H     6.473320    -2.141303    7.907884
H     8.183872    -1.549578    6.259895
H     6.907140    -0.746511    5.185786
H     3.365340    -3.565903    1.292052
H     1.186947    -3.093678    0.279298
H     0.846597    -1.799168    1.559555
