37
11/21/2023 17:08, XYZ structure generated by mol3D Class, molSimplify
Cr     -0.017406    -0.137071    -0.111148
P     2.457314    -0.566063    -0.505267
H     2.837256    -1.361252    -1.608083
C     3.547915    -1.179217    0.696006
H     3.485693    -0.829562    1.729124
O     4.526754    -1.977226    0.371141
H     5.161985    -2.145646    1.097946
P     -2.492111    0.291933    0.282935
H     -2.871964    1.087247    1.385692
C     -3.582662    0.905187    -0.918354
H     -3.520407    0.555431    -1.951435
O     -4.561428    1.703293    -0.593526
H     -5.196666    1.871743    -1.320319
P     0.337504    2.344981    -0.516245
H     -0.737292    3.142932    -0.963899
C     1.629074    3.007992    -1.462628
H     2.624240    2.559164    -1.426740
O     1.471159    4.108939    -2.143756
H     2.300237    4.462292    -2.527918
P     -0.372290    -2.619097    0.294039
H     0.702497    -3.417047    0.741711
C     -1.663885    -3.282191    1.240318
H     -2.659086    -2.833439    1.204438
O     -1.505940    -4.383160    1.921410
H     -2.335022    -4.736551    2.305528
P     0.403186    0.194073    2.373063
H     -0.179073    -0.699425    3.297847
C     0.162978    1.695639    3.204836
H     0.432093    2.639184    2.724746
O     -0.234327    1.724435    4.446614
H     -0.202136    2.614417    4.855021
P     -0.438007    -0.468100    -2.595398
H     0.144304    0.425355    -3.520191
C     -0.198009    -1.969686    -3.427178
H     -0.467189    -2.913265    -2.947190
O     0.199305    -1.998483    -4.668950
H     0.167048    -2.888458    -5.077367
