25
11/21/2023 17:07, XYZ structure generated by mol3D Class, molSimplify
Fe     0.116492    0.058306    0.059418
N     0.552188    2.037491    0.346893
O     1.990225    2.130562    0.117968
O     2.565208    1.144266    0.941634
N     2.127614    -0.135776    0.395798
H     0.399639    2.491245    1.257240
H     0.192463    2.695343    -0.357442
H     2.385407    -0.782749    1.152414
H     2.778338    -0.328104    -0.376383
N     -0.217943    -1.953643    -0.133048
O     -0.750585    -2.394718    1.151497
O     0.074689    -1.811982    2.131853
N     -0.167615    -0.376018    2.038762
H     0.554898    -2.601305    -0.332968
H     -0.979482    -2.214711    -0.772775
H     0.532982    -0.009600    2.696974
H     -1.079459    -0.232130    2.492376
N     -1.862017    0.353102    -0.374130
O     -1.957492    0.132667    -1.813761
O     -0.966363    0.952356    -2.385630
N     0.310374    0.395876    -1.951491
H     -2.310954    1.264972    -0.216424
H     -2.524172    -0.349311    -0.018669
H     0.962643    1.147444    -2.210724
H     0.494667    -0.377410    -2.603220
