49
11/21/2023 17:07, XYZ structure generated by mol3D Class, molSimplify
Fe     0.000017    5.920704    4.080194
N     -0.745776    4.038023    3.051870
N     -2.020695    3.718426    3.047196
N     -2.111821    2.564004    2.386070
H     -3.023208    2.136654    2.266936
C     -0.026634    3.082974    2.395362
C     -0.905400    2.119709    1.957266
H     1.042506    3.159113    2.281293
H     -0.776829    1.201991    1.404194
N     1.598306    6.190482    2.510146
N     2.429913    5.209185    2.242392
N     3.271254    5.679931    1.320517
H     4.003154    5.073504    0.968317
C     1.911384    7.285318    1.760662
C     2.998262    6.963350    0.981427
H     1.342822    8.198571    1.828834
H     3.569477    7.515330    0.250887
N     -1.407282    7.160127    2.854208
N     -1.091763    8.359388    2.421055
N     -2.173971    8.820235    1.793877
H     -2.143170    9.743187    1.375738
C     -2.690904    6.859261    2.506865
C     -3.199671    7.933904    1.815689
H     -3.135601    5.912564    2.768965
H     -4.158158    8.129254    1.359941
N     0.745707    7.803366    5.108305
N     2.020658    8.122827    5.113332
N     2.111704    9.277357    5.774284
H     3.023102    9.704625    5.893633
C     0.026486    8.758619    5.764432
C     0.905205    9.721878    6.202642
H     -1.042695    8.682603    5.878203
H     0.776559    10.639708    6.755513
N     -1.598224    5.650924    5.650175
N     -2.429739    6.632275    5.918024
N     -3.271044    6.161564    6.839944
H     -4.002875    6.768025    7.192231
C     -1.911325    4.556079    6.399635
C     -2.998117    4.878111    7.178960
H     -1.342848    3.642779    6.331375
H     -3.569320    4.326148    7.909523
N     1.407263    4.681103    5.305935
N     1.091768    3.481757    5.738877
N     2.173936    3.020842    6.366075
H     2.143173    2.097822    6.784067
C     2.690841    4.981964    5.653429
C     3.199591    3.907228    6.344474
H     3.135520    5.928720    5.391512
H     4.158050    3.711845    6.800265
