61
11/21/2023 17:07, XYZ structure generated by mol3D Class, molSimplify
Fe     2.644066    -0.000054    5.044277
O     3.608848    1.142568    3.657239
O     0.775025    0.372964    4.359725
O     2.618620    1.437308    6.464300
N     4.545783    2.802006    4.904506
N     1.173364    1.089595    2.239037
N     0.393509    1.814525    6.769829
C     4.379731    2.141580    3.757202
C     5.139908    2.627575    2.585109
C     5.198089    1.944285    1.437988
C     0.348580    0.710211    3.216403
C     -1.098602    0.696771    2.913937
C     -1.999096    0.161828    3.743965
C     1.674010    1.990855    7.101207
C     1.956190    2.867587    8.258186
C     3.166355    2.944275    8.820281
O     1.679366    -1.142784    6.431311
O     4.513130    -0.372957    5.728978
O     2.669170    -1.437527    3.624248
N     0.741504    -2.801681    5.184088
N     4.114559    -1.089541    7.849658
N     4.894207    -1.814901    3.318846
C     0.907997    -2.141407    6.331427
C     0.147743    -2.627129    7.503588
C     0.089744    -1.943810    8.650699
C     4.939430    -0.710052    6.872396
C     6.386543    -0.696319    7.175133
C     7.286984    -0.161817    6.344767
C     3.613726    -1.991246    2.987412
C     3.331531    -2.868139    1.830550
C     2.121376    -2.944797    1.268432
H     5.159340    3.603455    4.960329
H     4.008640    2.518305    5.723206
H     0.818466    1.370364    1.335140
H     2.172630    1.155258    2.434628
H     -0.347098    2.273469    7.282436
H     0.167481    1.248633    5.952720
H     5.671226    3.569591    2.698049
H     5.765890    2.312992    0.589939
H     4.686705    0.993535    1.321704
H     -1.407660    1.132233    1.966691
H     -3.056534    0.157273    3.500267
H     -1.702013    -0.294404    4.683733
H     1.122907    3.442623    8.654936
H     3.350561    3.587237    9.674851
H     4.000884    2.356672    8.448982
H     0.127657    -3.602915    5.128365
H     1.278801    -2.518306    4.365382
H     4.469254    -1.370361    8.753619
H     3.115360    -1.155459    7.653813
H     5.634767    -2.273928    2.806248
H     5.120271    -1.248869    4.135849
H     -0.383821    -3.569012    7.390696
H     -0.478146    -2.312352    9.498760
H     0.601398    -0.993206    8.766986
H     6.695549    -1.131164    8.122682
H     8.344409    -0.157006    6.588508
H     6.989890    0.293757    5.404681
H     4.164779    -3.443303    1.433908
H     1.937110    -3.587852    0.413945
H     1.286894    -2.357062    1.639628
