73
11/21/2023 17:07, XYZ structure generated by mol3D Class, molSimplify
Fe     0.000090    0.000140    -0.000046
O     2.117485    -0.596065    -0.098599
N     3.079052    -0.025016    -0.807523
C     2.838417    0.442106    -2.060900
C     3.863215    1.014566    -2.799411
C     5.148118    1.109740    -2.263366
C     5.369244    0.618028    -0.975341
C     4.322270    0.057211    -0.263543
O     -2.117504    0.596513    0.098454
O     0.411215    1.999589    -0.552183
O     -0.411477    -1.999342    0.552314
O     0.151744    0.550269    2.083512
O     -0.151546    -0.550060    -2.083708
N     -3.079020    0.025039    0.807091
N     0.415593    3.061202    0.243089
N     -0.415701    -3.061110    -0.242749
N     1.120135    0.176438    2.912340
N     -1.120011    -0.176250    -2.912458
C     -2.838516    -0.442059    2.060512
C     -4.322087    -0.057623    0.262827
C     -0.669135    3.354679    1.003553
C     1.505495    3.870554    0.240401
C     0.668984    -3.354764    -1.003204
C     -1.505574    -3.870498    -0.239883
C     1.562863    -1.106304    2.917896
C     1.625518    1.092372    3.778067
C     -1.562766    1.106475    -2.917517
C     -1.625344    -1.091995    -3.778418
C     -3.863268    -1.014905    2.798787
C     -5.369010    -0.618838    0.974384
C     -0.677153    4.493924    1.793710
C     1.532600    5.016955    1.017053
C     0.676938    -4.494180    -1.793114
C     -1.532770    -5.017074    -1.016266
C     2.544400    -1.499196    3.815276
C     2.605671    0.734777    4.688712
C     -2.544365    1.499633    -3.814715
C     -2.605552    -0.734072    -4.688870
C     -5.148017    -1.110506    2.262446
C     0.430096    5.343171    1.809504
C     -0.430300    -5.343446    -1.808700
C     3.079925    -0.578231    4.716408
C     -3.079868    0.578926    -4.716118
H     1.817247    0.306226    -2.395903
H     3.643584    1.373960    -3.799135
H     5.958063    1.548745    -2.835852
H     6.349993    0.660689    -0.514124
H     4.404406    -0.353685    0.733818
H     -1.817447    -0.305894    2.395715
H     -4.404156    0.353302    -0.734525
H     -1.478715    2.640944    0.921156
H     2.305651    3.549179    -0.412636
H     1.478591    -2.641043    -0.921000
H     -2.305705    -3.548970    0.413106
H     1.082666    -1.748487    2.190675
H     1.193092    2.080321    3.693756
H     -1.082604    1.748423    -2.190066
H     -1.192867    -2.079949    -3.694438
H     -3.643730    -1.374254    3.798549
H     -6.349640    -0.661825    0.512949
H     -1.560385    4.709282    2.385359
H     2.414370    5.647707    0.987514
H     1.560140    -4.709664    -2.384763
H     -2.414545    -5.647812    -0.986551
H     2.874182    -2.532498    3.804113
H     2.983549    1.487335    5.372153
H     -2.874207    2.532912    -3.803178
H     -2.983445    -1.486405    -5.372549
H     -5.957942    -1.549802    2.834737
H     0.431532    6.241727    2.417219
H     -0.431756    -6.242123    -2.416236
H     3.842748    -0.876337    5.427660
H     -3.842741    0.877224    -5.427237
