31
11/21/2023 17:07, XYZ structure generated by mol3D Class, molSimplify
Fe     0.022577    -0.020020    -0.039017
P     -0.232334    2.231138    -0.356413
H     -1.198371    2.729192    -1.256453
H     -0.517475    3.058417    0.755439
N     1.206264    2.870914    -1.052896
H     1.138611    3.162465    -2.025635
N     2.377598    2.128218    -0.807724
H     3.053534    2.642278    -0.249313
P     2.208187    0.445676    -0.532964
H     2.809824    -0.217264    -1.629497
H     3.209884    0.206792    0.432487
P     0.470976    -2.212184    0.417681
H     1.660717    -2.791395    -0.083227
H     -0.440186    -3.223054    0.044394
N     0.523894    -2.445670    2.123314
H     -0.239963    -2.986804    2.522637
N     0.799762    -1.291320    2.885682
H     1.682855    -1.363760    3.384144
P     0.395329    0.226954    2.195864
H     1.461839    1.039012    2.638676
H     -0.634704    0.779625    2.994126
P     -2.220957    -0.336710    0.256378
H     -2.663177    -1.465755    0.988855
H     -3.007395    0.650611    0.885722
N     -2.982948    -0.433376    -1.279241
H     -3.617514    0.322184    -1.525795
N     -2.162807    -0.813680    -2.358883
H     -2.412290    -1.729120    -2.724617
P     -0.489214    -0.454156    -2.225999
H     0.090651    -1.557005    -2.887515
H     -0.212330    0.540676    -3.195834
