55
11/21/2023 17:07, XYZ structure generated by mol3D Class, molSimplify
Fe     -0.404145    0.044308    -0.251662
S     -0.892439    2.646603    0.018544
C     -1.699617    3.084922    1.515347
C     -0.965268    4.003924    2.195728
C     0.286884    4.329040    1.557270
C     0.498842    3.650155    0.398967
H     -2.676770    2.680497    1.738685
H     -1.301500    4.459104    3.121079
H     1.325961    3.721335    -0.293942
H     0.986827    5.059395    1.948787
S     2.103368    0.514624    -0.755015
C     2.786732    -0.289204    -2.158606
C     3.929229    -0.938855    -1.813184
C     4.239221    -0.855855    -0.405734
C     3.331282    -0.144530    0.311186
H     2.331539    -0.159597    -3.130075
H     4.556449    -1.452795    -2.533773
H     3.313860    0.101247    1.363039
H     5.122176    -1.302929    0.038058
S     -0.240473    -2.566244    -0.856271
C     1.251540    -3.386393    -0.436979
C     0.994513    -4.456728    0.359535
C     -0.399951    -4.602480    0.696524
C     -1.192854    -3.637754    0.157473
H     2.186302    -3.045960    -0.858598
H     1.764609    -5.144244    0.692183
H     -2.268838    -3.536153    0.195208
H     -0.788635    -5.415935    1.299826
S     -3.015252    -0.423274    0.021877
C     -4.088919    0.690696    -0.813349
C     -5.000730    1.202066    0.053320
C     -4.821166    0.752914    1.413122
C     -3.770967    -0.094544    1.573652
H     -4.009352    0.819696    -1.883765
H     -5.796977    1.870365    -0.255930
H     -3.425286    -0.599173    2.465152
H     -5.472505    1.044862    2.230069
S     -0.093039    -0.253177    2.322887
C     1.040781    0.830843    3.109886
C     1.959292    0.116794    3.813416
C     1.806368    -1.311328    3.679868
C     0.770891    -1.674349    2.879375
H     0.891774    1.899749    3.054091
H     2.719603    0.581223    4.432364
H     0.409422    -2.659148    2.621180
H     2.442972    -2.029981    4.184243
S     -1.008204    0.432920    -2.847669
C     -0.400498    -0.664843    -4.073174
C     0.248224    0.029941    -5.045954
C     0.320467    1.447703    -4.793237
C     -0.277455    1.822806    -3.631314
H     -0.629464    -1.720191    -4.018317
H     0.651763    -0.440326    -5.936295
H     -0.418159    2.814692    -3.223882
H     0.788114    2.153342    -5.471197
