73
11/21/2023 17:07, XYZ structure generated by mol3D Class, molSimplify
Fe     -0.054982    -0.045010    0.228208
O     0.223157    2.021321    -0.258843
C     0.572184    2.986539    0.455192
N     0.683181    4.243287    0.023458
H     0.819830    2.845544    1.514394
C     0.393157    4.602757    -1.364275
H     0.066219    3.712431    -1.899571
H     1.291609    5.011070    -1.839004
H     -0.393147    5.364187    -1.392386
C     1.109497    5.323648    0.912582
H     2.030959    5.778969    0.535462
H     1.292319    4.931130    1.915154
H     0.333128    6.093558    0.966573
O     2.039410    -0.577015    -0.002048
C     2.826337    -0.077703    -0.835381
N     4.141571    -0.295296    -0.866007
H     2.460821    0.599653    -1.617886
C     4.798694    -1.151832    0.120066
H     4.067546    -1.457937    0.866667
H     5.608925    -0.598080    0.605153
H     5.222779    -2.034927    -0.370061
C     4.992429    0.302651    -1.893850
H     5.482908    -0.481322    -2.480255
H     5.763015    0.926014    -1.428636
H     4.390285    0.921451    -2.562745
O     -0.508741    -2.120926    0.410959
C     0.294503    -3.001037    0.801631
N     -0.047767    -4.256833    1.082465
H     1.357937    -2.770720    0.934419
C     -1.431481    -4.718157    0.965011
H     -2.057724    -3.883484    0.653468
H     -1.776540    -5.098925    1.931760
H     -1.492387    -5.526070    0.228375
C     0.942767    -5.237690    1.525856
H     0.983529    -6.075907    0.822792
H     0.673546    -5.621542    2.515143
H     1.929037    -4.771986    1.581839
O     -2.124327    0.272599    0.758599
C     -2.921155    0.927427    0.049848
N     -4.233526    1.014935    0.264479
H     -2.563675    1.484551    -0.825241
C     -4.874791    0.313480    1.376084
H     -5.729017    -0.259250    1.002028
H     -5.234100    1.031795    2.121230
H     -4.153199    -0.363013    1.831958
C     -5.093385    1.835542    -0.587323
H     -5.577039    2.618399    0.006364
H     -5.869160    1.215873    -1.048590
H     -4.498892    2.305216    -1.374057
O     0.434971    0.366333    2.252488
C     -0.335379    0.354771    3.242061
N     0.067518    0.476175    4.505012
H     -1.416753    0.239489    3.109920
C     1.482247    0.626656    4.847599
H     2.073807    0.592105    3.933985
H     1.787231    -0.183799    5.517477
H     1.641289    1.581466    5.359608
C     -0.885168    0.460342    5.615520
H     -0.652182    -0.365215    6.295468
H     -1.900197    0.331649    5.233990
H     -0.829202    1.401257    6.172282
O     -0.383758    -0.221588    -1.869183
C     -0.650839    -1.227415    -2.563496
N     -0.770521    -1.216214    -3.890984
H     -0.812587    -2.206818    -2.098316
C     -0.592458    0.012133    -4.664612
H     -1.507875    0.234968    -5.222495
H     0.229540    -0.112811    -5.377375
H     -0.368014    0.830454    -3.981876
C     -1.091508    -2.431069    -4.639262
H     -0.291651    -2.657919    -5.351794
H     -2.026608    -2.296211    -5.192493
H     -1.204368    -3.272586    -3.952364
