49
11/21/2023 17:07, XYZ structure generated by mol3D Class, molSimplify
Fe     -0.049398    0.071019    0.071972
O     0.002885    2.052941    -0.147885
C     1.262795    2.627574    -0.378460
C     1.101543    3.965688    -0.566651
C     -0.302681    4.247788    -0.455732
C     -0.943169    3.083108    -0.208805
H     1.887271    4.680896    -0.766545
H     -1.966124    2.778908    -0.058247
H     -0.770189    5.217747    -0.555802
C     2.343699    1.684185    -0.347468
O     1.935999    0.348433    -0.208007
C     3.094942    -0.436534    -0.180942
C     4.171877    0.369956    -0.316684
C     3.702156    1.722717    -0.420527
H     4.310967    2.609290    -0.530975
H     2.946296    -1.498121    -0.070289
H     5.203626    0.046825    -0.339335
O     0.230222    -1.914533    0.349031
C     0.362351    -2.323149    1.685310
C     0.425220    -3.682094    1.724175
C     0.322125    -4.151215    0.371145
C     0.196536    -3.073430    -0.435824
H     0.528330    -4.291560    2.611181
H     0.090477    -2.924050    -1.497773
H     0.338496    -5.183135    0.048176
C     0.397977    -1.242321    2.628576
O     0.170406    0.018278    2.054104
C     0.235629    0.964164    3.084121
C     0.481922    0.323017    4.248565
C     0.588223    -1.081570    3.966427
H     0.786871    -1.867853    4.681370
H     0.088051    1.987593    2.780051
H     0.584678    0.790309    5.218345
O     -2.031102    -0.151170    0.020318
C     -2.606180    -0.381827    -1.239397
C     -3.943372    -0.575447    -1.077043
C     -4.224382    -0.467994    0.327664
C     -3.059965    -0.217748    0.967352
H     -4.658598    -0.776902    -1.862355
H     -2.755179    -0.068262    1.990286
H     -5.193462    -0.572665    0.795981
C     -1.664145    -0.343015    -2.321173
O     -0.327560    -0.208875    -1.913804
C     0.455541    -0.168833    -3.073698
C     -0.352469    -0.293337    -4.150815
C     -1.704600    -0.401630    -3.680234
H     -2.592183    -0.504816    -4.288848
H     1.517484    -0.060743    -2.925622
H     -0.030824    -0.305531    -5.183208
