43
11/21/2023 17:07, XYZ structure generated by mol3D Class, molSimplify
Fe     -0.001167    -0.001827    0.000356
N     1.424600    0.244864    1.451644
N     1.756165    1.486972    1.916918
N     2.623712    1.398979    2.859515
N     2.867731    0.083462    3.023818
C     2.130128    -0.623490    2.159558
H     3.530477    -0.228617    3.727260
H     2.123949    -1.696578    2.049038
N     -0.937237    -1.366931    1.191736
N     -1.008105    -1.203390    2.547015
N     -1.594798    -2.207484    3.091441
N     -1.914456    -3.047489    2.086622
C     -1.508849    -2.529776    0.921124
H     -2.392168    -3.921592    2.284426
H     -1.639708    -2.966970    -0.056619
N     1.078097    -1.512955    -0.841678
N     1.568955    -2.546150    -0.094995
N     2.169505    -3.398685    -0.844617
N     2.072066    -2.926347    -2.103997
C     1.400800    -1.768996    -2.099649
H     2.480616    -3.443887    -2.876391
H     1.177618    -1.150034    -2.954591
N     -1.426754    -0.248640    -1.451050
N     -1.758341    -1.490727    -1.916355
N     -2.625831    -1.402738    -2.859010
N     -2.869835    -0.087232    -3.023383
C     -2.132257    0.619666    -2.159054
H     -3.532518    0.224858    -3.726880
H     -2.126074    1.692754    -2.048546
N     0.934962    1.363098    -1.191129
N     1.005462    1.198997    -2.546381
N     1.592228    2.202743    -3.091317
N     1.912138    3.042801    -2.086631
C     1.506802    2.525877    -0.920689
H     2.389971    3.916690    -2.284847
H     1.637965    2.963385    0.056877
N     -1.080262    1.509354    0.842491
N     -1.571146    2.542548    0.095818
N     -2.171655    3.395132    0.845417
N     -2.074107    2.922844    2.104804
C     -1.402882    1.765465    2.100470
H     -2.482581    3.440434    2.877206
H     -1.179667    1.146537    2.955426
