73
11/21/2023 17:07, XYZ structure generated by mol3D Class, molSimplify
Fe     -0.018882    -0.022298    0.225024
O     0.221463    1.928511    -0.220586
C     0.650384    2.825121    0.542408
N     0.804726    4.098796    0.180446
H     0.934013    2.599020    1.575254
C     0.481860    4.556968    -1.170469
H     0.137858    3.708356    -1.759944
H     1.371749    4.993676    -1.635690
H     -0.300435    5.322205    -1.128505
C     1.315237    5.100997    1.115629
H     2.244155    5.534677    0.731199
H     1.513761    4.639068    2.085038
H     0.581424    5.902842    1.247211
O     1.940508    -0.387821    -0.012539
C     2.603766    0.058648    -0.977845
N     3.918305    -0.102793    -1.123246
H     2.114506    0.628347    -1.774378
C     4.721161    -0.818285    -0.131655
H     4.118410    -0.992018    0.758670
H     5.595602    -0.214647    0.129176
H     5.065454    -1.775068    -0.539731
C     4.621275    0.413045    -2.297756
H     5.099189    -0.407668    -2.842739
H     5.392829    1.126584    -1.991016
H     3.915517    0.915660    -2.962530
O     -0.404693    -1.970105    0.527062
C     0.460806    -2.794079    0.909717
N     0.203419    -4.070372    1.192134
H     1.504755    -2.489834    1.033012
C     -1.146617    -4.625212    1.090321
H     -1.849649    -3.819442    0.884147
H     -1.412387    -5.114467    2.032610
H     -1.188348    -5.369785    0.287880
C     1.267262    -4.988181    1.599578
H     1.352763    -5.810039    0.881139
H     1.045259    -5.406383    2.586680
H     2.220204    -4.456817    1.645583
O     -1.965258    0.256576    0.625194
C     -2.712019    0.993150    -0.060144
N     -4.022028    1.130325    0.141244
H     -2.306965    1.581797    -0.889562
C     -4.720015    0.397880    1.197485
H     -5.603427    -0.091357    0.776176
H     -5.043509    1.085903    1.986335
H     -4.050270    -0.352795    1.614380
C     -4.821634    2.056265    -0.660672
H     -5.250513    2.835178    -0.021460
H     -5.637330    1.518141    -1.153883
H     -4.195658    2.528005    -1.421239
O     0.404624    0.307926    2.157503
C     -0.368423    0.039995    3.107612
N     -0.047118    0.175250    4.393749
H     -1.379629    -0.332829    2.918636
C     1.274799    0.639223    4.814823
H     1.913833    0.742420    3.939047
H     1.713660    -0.086630    5.506722
H     1.188618    1.602640    5.329001
C     -1.012060    -0.119811    5.452579
H     -0.623535    -0.904389    6.110168
H     -1.953727    -0.457502    5.014723
H     -1.200348    0.777394    6.051438
O     -0.316391    -0.218366    -1.757145
C     -0.832491    -1.201855    -2.337279
N     -1.025130    -1.275166    -3.654186
H     -1.166798    -2.077198    -1.770944
C     -0.643647    -0.183823    -4.550185
H     -1.506923    0.113860    -5.153823
H     0.155610    -0.511721    -5.223750
H     -0.301787    0.662359    -3.956003
C     -1.609486    -2.464596    -4.273741
H     -0.899822    -2.908424    -4.979623
H     -2.522668    -2.197245    -4.815283
H     -1.855342    -3.202312    -3.506956
