37
11/21/2023 17:07, XYZ structure generated by mol3D Class, molSimplify
Fe     -0.017778    -0.136924    -0.110579
N     0.217426    2.043686    -0.469506
H     -0.638344    2.601632    -0.399851
C     1.210337    2.763136    -0.839825
H     2.196024    2.314122    -0.966100
O     1.087789    4.062943    -1.080972
H     1.927043    4.467125    -1.364352
N     2.168777    -0.489855    -0.424452
H     2.421141    -0.596211    -1.411439
C     3.186472    -0.666767    0.331355
H     3.083883    -0.594054    1.414819
O     4.393221    -0.935452    -0.157061
H     5.056411    -1.055725    0.545449
N     -0.252671    -2.317597    0.248654
H     0.603712    -2.875008    0.182479
C     -1.246737    -3.037771    0.614428
H     -2.233108    -2.589139    0.736662
O     -1.124646    -4.337612    0.855655
H     -1.964873    -4.742234    1.135496
N     -2.204321    0.216010    0.203183
H     -2.456467    0.322457    1.190221
C     -3.222110    0.393175    -0.552445
H     -3.119926    0.320370    -1.635945
O     -4.428657    0.662197    -0.063742
H     -5.091996    0.782585    -0.766091
N     0.276463    0.194504    2.072981
H     0.273999    -0.676090    2.612139
C     0.378713    1.213021    2.841447
H     0.389312    2.218820    2.420269
O     0.477519    1.095131    4.161304
H     0.537705    1.959628    4.604836
N     -0.312513    -0.468809    -2.294110
H     -0.314628    0.402044    -2.832846
C     -0.410007    -1.487413    -3.063077
H     -0.415510    -2.493485    -2.642455
O     -0.509918    -1.369244    -4.382825
H     -0.566117    -2.233757    -4.826855
