31
11/21/2023 17:07, XYZ structure generated by mol3D Class, molSimplify
Fe     -0.022309    -0.014889    -0.002126
N     0.196609    2.028769    -0.212939
N     1.581795    2.162901    -0.616168
N     2.310840    1.426642    0.400898
N     2.035439    0.035705    0.090135
H     -0.009300    2.612097    0.608057
H     -0.373058    2.369635    -0.992194
H     1.879603    3.137969    -0.502724
H     3.299770    1.628055    0.216105
H     2.548290    -0.262142    -0.749287
H     2.385013    -0.513532    0.879362
N     -0.203902    -2.055552    0.251226
N     -0.678123    -2.175740    1.615389
N     0.286079    -1.407804    2.383024
N     -0.033528    -0.029109    2.058398
H     0.638778    -2.624657    0.100526
H     -0.943951    -2.424061    -0.352483
H     -0.561595    -3.143717    1.934358
H     0.049247    -1.589837    3.364582
H     -0.907522    0.260669    2.515153
H     0.721453    0.545055    2.442218
N     -2.080827    0.036375    -0.183432
N     -2.299874    -0.465624    -1.526137
N     -1.452228    0.374554    -2.352357
N     -0.110078    -0.094766    -2.063923
H     -2.537314    0.947852    -0.053149
H     -2.516442    -0.632072    0.457252
H     -3.258394    -0.248281    -1.820287
H     -1.699118    0.133836    -3.318663
H     0.060553    -1.009301    -2.500455
H     0.536038    0.580529    -2.480813
