25
11/21/2023 17:07, XYZ structure generated by mol3D Class, molSimplify
Fe     0.173146    0.023799    0.104005
N     0.745259    2.205718    0.360211
O     2.132782    2.153461    -0.073234
O     2.786383    1.248743    0.793936
N     2.414809    -0.087533    0.370664
H     0.757749    2.742379    1.236930
H     0.337249    2.831770    -0.344938
H     2.701271    -0.647986    1.182104
H     3.074424    -0.325135    -0.380880
N     -0.315047    -2.197158    -0.013789
O     -1.051177    -2.423975    1.217033
O     -0.239118    -1.947033    2.268057
N     -0.335023    -0.497767    2.244977
H     0.384926    -2.948898    -0.050494
H     -1.021367    -2.436975    -0.719720
H     0.390224    -0.237484    2.924335
H     -1.231472    -0.279176    2.698533
N     -1.998411    0.441671    -0.454617
O     -1.997689    0.284108    -1.897103
O     -0.959690    1.099915    -2.398705
N     0.285924    0.406379    -2.131158
H     -2.482782    1.331677    -0.281929
H     -2.655991    -0.295537    -0.173742
H     0.978336    1.118006    -2.395442
H     0.346975    -0.326841    -2.848902
