97
11/21/2023 17:07, XYZ structure generated by mol3D Class, molSimplify
Fe     -0.415439    0.261355    -0.049761
S     -0.678467    2.728466    0.268662
C     0.745807    3.897937    0.122577
C     0.252923    5.350159    0.102318
C     -0.492162    5.756055    1.383085
C     -1.728569    4.890175    1.663750
C     -1.403948    3.401474    1.830826
H     1.267403    3.630463    -0.799480
H     1.424651    3.730673    0.965121
H     1.132062    5.992000    -0.034673
H     -0.389745    5.504499    -0.773341
H     0.196510    5.699402    2.238253
H     -0.796663    6.804728    1.303749
H     -2.211782    5.223642    2.590658
H     -2.466762    5.012602    0.861399
H     -2.297895    2.805940    2.024925
H     -0.697009    3.248510    2.652000
S     2.002750    0.600583    -0.528959
C     3.188499    1.297725    0.711735
C     4.050608    0.274770    1.453231
C     4.876757    -0.619036    0.520789
C     3.982784    -1.472052    -0.387115
C     3.120120    -0.641088    -1.338825
H     2.581574    1.892617    1.396103
H     3.822929    1.988253    0.145745
H     4.715046    0.837429    2.120949
H     3.422073    -0.359469    2.091057
H     5.548348    -0.001418    -0.090800
H     5.516985    -1.273517    1.120849
H     4.600417    -2.133255    -1.007443
H     3.347169    -2.118713    0.230613
H     2.473105    -1.266370    -1.955383
H     3.755065    -0.056685    -2.013619
S     -0.741854    -2.126924    -0.360560
C     0.674951    -3.275781    -0.650364
C     0.195287    -4.731431    -0.703851
C     -0.801592    -5.003166    -1.839777
C     -2.071957    -4.145710    -1.744386
C     -1.787443    -2.640392    -1.795797
H     1.365173    -3.112423    0.180070
H     1.178162    -2.995590    -1.581055
H     1.082950    -5.363122    -0.831699
H     -0.249123    -5.004094    0.261679
H     -0.311996    -4.823012    -2.807411
H     -1.079425    -6.062012    -1.828321
H     -2.741024    -4.381547    -2.581085
H     -2.619585    -4.384468    -0.824077
H     -2.702943    -2.050127    -1.726094
H     -1.281212    -2.368447    -2.726953
S     -2.866263    0.463211    0.422314
C     -3.688310    -0.982353    1.228427
C     -5.162835    -0.676142    1.512796
C     -5.979723    -0.381926    0.247057
C     -5.460137    0.832944    -0.535381
C     -4.010780    0.678160    -1.012568
H     -3.129804    -1.159741    2.150552
H     -3.580020    -1.859801    0.583189
H     -5.581343    -1.547529    2.031501
H     -5.229761    0.168214    2.210014
H     -5.979347    -1.266321    -0.406156
H     -7.023849    -0.207431    0.526506
H     -6.079853    0.993470    -1.426061
H     -5.546821    1.739654    0.076253
H     -3.665535    1.574922    -1.532952
H     -3.900200    -0.172491    -1.691680
S     -0.334031    -0.153811    2.381846
C     0.850974    0.797179    3.429936
C     0.643463    0.466952    4.913070
C     0.936960    -1.004698    5.239274
C     0.053607    -1.984272    4.453591
C     0.178576    -1.843490    2.931509
H     0.670230    1.852592    3.219393
H     1.867782    0.547822    3.119112
H     1.314192    1.114882    5.491042
H     -0.380520    0.727218    5.207280
H     1.995323    -1.218517    5.032922
H     0.793182    -1.173044    6.311526
H     0.325118    -3.015907    4.709733
H     -0.997465    -1.855282    4.740510
H     -0.481916    -2.541476    2.413345
H     1.206245    -2.018804    2.593425
S     -0.883225    0.600492    -2.451106
C     0.407583    -0.050805    -3.600265
C     0.014357    0.185095    -5.063593
C     -0.105860    1.674057    -5.417182
C     -1.153464    2.406192    -4.567582
C     -0.868186    2.346080    -3.062721
H     0.506274    -1.116585    -3.377307
H     1.355877    0.443166    -3.367198
H     0.782964    -0.285054    -5.689568
H     -0.928969    -0.332216    -5.278991
H     0.872361    2.158950    -5.290774
H     -0.365507    1.773292    -6.476134
H     -1.185832    3.465906    -4.849624
H     -2.152559    1.998474    -4.766951
H     -1.628000    2.874973    -2.484958
H     0.109473    2.779977    -2.825580
