37
11/21/2023 17:07, XYZ structure generated by mol3D Class, molSimplify
Fe     -0.018039    -0.136772    -0.109957
N     0.213557    1.857319    -0.454412
H     -0.639650    2.412519    -0.342197
C     1.192575    2.588438    -0.841050
H     2.173821    2.149028    -1.015713
O     1.048289    3.895768    -1.034166
H     1.870659    4.315925    -1.341405
N     1.969035    -0.482485    -0.391868
H     2.218905    -0.616107    -1.375652
C     2.985423    -0.631424    0.373943
H     2.878830    -0.532247    1.453355
O     4.190975    -0.902164    -0.116305
H     4.857964    -1.007806    0.584575
N     -0.249585    -2.130856    0.234881
H     0.605717    -2.684467    0.131221
C     -1.231003    -2.863950    0.611512
H     -2.214854    -2.426674    0.776550
O     -1.085897    -4.171136    0.805856
H     -1.910398    -4.592950    1.105006
N     -2.005271    0.208690    0.172178
H     -2.254974    0.341677    1.156097
C     -3.021697    0.358509    -0.593406
H     -2.915325    0.259912    -1.672906
O     -4.227147    0.629314    -0.102884
H     -4.894165    0.735606    -0.803640
N     0.246906    0.123850    1.895311
H     0.232512    -0.744051    2.438463
C     0.366420    1.145884    2.659203
H     0.386915    2.150091    2.237756
O     0.473954    1.018441    3.978142
H     0.543305    1.879388    4.426624
N     -0.283736    -0.397717    -2.115137
H     -0.279478    0.470865    -2.657316
C     -0.393897    -1.420130    -2.879895
H     -0.403250    -2.424958    -2.459548
O     -0.505256    -1.292385    -4.198518
H     -0.566522    -2.153505    -4.647851
