25
11/21/2023 17:07, XYZ structure generated by mol3D Class, molSimplify
Fe     -0.103810    -0.043313    -0.042328
O     0.093615    2.059964    0.390302
C     1.398118    2.581694    0.356670
C     2.364884    1.751832    -0.013004
O     1.977423    0.467752    -0.409640
H     -0.575762    2.761922    0.310753
H     1.533168    3.609319    0.666796
H     3.418174    1.996400    -0.052552
H     2.737979    -0.131537    -0.500753
O     0.285386    -2.142804    0.202611
C     0.349241    -2.622853    1.520578
C     0.209568    -1.727388    2.489119
O     -0.061338    -0.414293    2.095776
H     0.121312    -2.856523    -0.437986
H     0.538961    -3.678640    1.659107
H     0.264410    -1.937145    3.549058
H     0.041828    0.227865    2.818224
O     -2.259363    -0.015305    -0.332393
C     -2.687017    -0.054057    -1.663235
C     -1.747142    -0.042602    -2.599750
O     -0.415384    -0.036913    -2.161112
H     -3.000727    -0.033550    0.296082
H     -3.751850    -0.094208    -1.850364
H     -1.924188    -0.071750    -3.666436
H     0.210178    0.207047    -2.864764
