25
11/21/2023 17:07, XYZ structure generated by mol3D Class, molSimplify
Fe     0.001465    0.002033    0.002363
S     -0.386415    2.574420    0.407931
C     -1.110005    2.983748    1.808101
H     -1.424454    2.259447    2.558726
H     -1.298228    4.035151    2.027477
S     2.575478    0.412858    -0.388765
C     2.974599    1.779375    -1.181170
H     4.025840    2.015888    -1.349324
H     2.242814    2.491104    -1.562357
S     0.388596    -2.570708    -0.404221
C     1.112901    -2.979927    -1.804046
H     1.428421    -2.255540    -2.554138
H     1.300497    -4.031372    -2.023761
S     -2.572756    -0.409729    0.392366
C     -2.971942    -1.775823    1.185459
H     -4.023215    -2.012653    1.352963
H     -2.240170    -2.486997    1.567711
S     0.395040    -0.379486    2.591617
C     1.765559    -1.183340    2.951509
H     2.456890    -1.562296    2.199455
H     2.025473    -1.362848    3.995344
S     -0.393009    0.382229    -2.587237
C     -1.762698    1.187346    -2.947373
H     -2.022814    1.366147    -3.991282
H     -2.453291    1.567805    -2.195398
