55
11/21/2023 17:07, XYZ structure generated by mol3D Class, molSimplify
Fe     -0.066735    0.023633    -0.029033
N     0.051487    2.180305    -0.351309
N     2.105246    0.383217    -0.382868
C     -0.970542    3.056114    -0.404821
C     -0.763631    4.400306    -0.681149
C     0.558545    4.797053    -0.903085
N     1.577987    3.933867    -0.858898
N     3.656316    2.168305    -0.686399
C     4.663878    1.291136    -0.652712
C     4.447253    -0.078915    -0.484493
C     3.127695    -0.491618    -0.349474
C     1.293459    2.665010    -0.589157
C     2.425619    1.686997    -0.551124
H     2.873701    -1.538221    -0.211700
H     5.266117    -0.789098    -0.456732
H     5.665496    1.699624    -0.762676
H     -1.960465    2.649106    -0.222271
H     -1.588382    5.102724    -0.724418
H     0.810920    5.831230    -1.124754
N     0.264543    -2.085501    0.618078
N     0.253049    0.095545    2.199325
C     0.185711    -3.175883    -0.168735
C     0.302106    -4.459693    0.347595
C     0.504429    -4.563574    1.726586
N     0.576191    -3.488586    2.518323
N     0.810710    -1.244037    4.091848
C     0.859680    -0.142681    4.848476
C     0.613375    1.128939    4.324575
C     0.311948    1.197125    2.969849
C     0.451724    -2.299504    1.941637
C     0.512018    -1.083371    2.808296
H     0.107369    2.142989    2.478184
H     0.656427    2.020609    4.939970
H     1.104266    -0.287503    5.897903
H     0.024689    -2.997658    -1.227254
H     0.237754    -5.333983    -0.290395
H     0.609158    -5.529969    2.213838
N     -2.271232    -0.214037    -0.038713
N     -0.608205    -0.365890    -2.168440
C     -3.082765    -0.208793    1.036244
C     -4.435019    -0.507476    0.933324
C     -4.911704    -0.816023    -0.343677
N     -4.114821    -0.829681    -1.417499
N     -2.470223    -0.727355    -3.613436
C     -1.644329    -0.728407    -4.665232
C     -0.266468    -0.542878    -4.525849
C     0.213204    -0.360629    -3.234628
C     -2.835165    -0.532110    -1.227609
C     -1.925770    -0.546607    -2.416105
H     1.268961    -0.204409    -3.036011
H     0.399423    -0.538394    -5.381519
H     -2.102308    -0.879034    -5.639834
H     -2.621000    0.043282    1.985712
H     -5.084191    -0.500456    1.801698
H     -5.957072    -1.061069    -0.515327
