49
11/21/2023 17:07, XYZ structure generated by mol3D Class, molSimplify
Fe     0.004499    0.004521    -0.014520
N     0.193967    2.153078    0.320329
C     -0.481054    4.347067    0.634712
S     1.242242    4.458041    0.744685
C     1.359556    2.773782    0.484135
C     -0.859613    3.059102    0.407707
H     2.317180    2.274431    0.453690
H     -1.876272    2.711487    0.305579
H     -1.110085    5.222074    0.741494
N     2.167730    -0.244934    0.284323
C     4.424291    -0.207491    -0.244277
S     4.425727    -0.748840    1.399212
C     2.720713    -0.649217    1.424918
C     3.149379    0.008968    -0.671171
H     2.155570    -0.907004    2.309103
H     2.873147    0.355419    -1.655989
H     5.346961    -0.081176    -0.796970
N     -0.185104    -2.144203    -0.343058
C     0.488822    -4.331843    -0.701628
S     -1.236484    -4.448410    -0.763441
C     -1.352554    -2.767661    -0.480900
C     0.868763    -3.045082    -0.470101
H     -2.310739    -2.272746    -0.415651
H     1.886095    -2.693631    -0.389562
H     1.117704    -5.203259    -0.835386
N     -2.166242    0.249849    -0.301737
C     -4.418881    0.247324    0.246012
S     -4.436025    0.645030    -1.437736
C     -2.730585    0.552746    -1.468055
C     -3.139658    0.074334    0.679374
H     -2.175835    0.737309    -2.376515
H     -2.854714    -0.179921    1.689134
H     -5.336311    0.166341    0.815625
N     -0.323337    -0.289430    2.135639
C     -0.610971    -1.460272    4.115631
S     -0.618885    0.187169    4.642329
C     -0.397397    0.695630    3.027145
C     -0.446434    -1.525841    2.765374
H     -0.332671    1.742561    2.769380
H     -0.406677    -2.438165    2.189722
H     -0.728380    -2.276800    4.817236
N     0.325534    0.315683    -2.157019
C     0.560523    1.493099    -4.139564
S     0.672648    -0.153427    -4.658410
C     0.466408    -0.667328    -3.043141
C     0.379406    1.554767    -2.791353
H     0.460745    -1.715239    -2.780395
H     0.277730    2.465390    -2.220455
H     0.634989    2.312097    -4.844166
