37
11/21/2023 17:07, XYZ structure generated by mol3D Class, molSimplify
Fe     -0.017351    -0.137105    -0.111008
P     2.572925    -0.644412    -0.537006
H     2.945339    -1.426052    -1.656416
C     3.698266    -1.307207    0.614119
H     3.696923    -0.958922    1.649699
O     4.621196    -2.155100    0.251809
H     5.273277    -2.359288    0.954531
P     -2.607621    0.370603    0.314855
H     -2.979957    1.152358    1.434211
C     -3.733003    1.033319    -0.836281
H     -3.731761    0.684950    -1.871834
O     -4.655872    1.881279    -0.473985
H     -5.307994    2.085431    -1.176679
P     0.292405    2.491795    -0.530241
H     -0.797870    3.386470    -0.411093
C     1.204318    3.367064    -1.721357
H     2.153628    2.970286    -2.089121
O     0.825382    4.541949    -2.149755
H     1.474030    4.975673    -2.742255
P     -0.327137    -2.765917    0.308137
H     0.763018    -3.660751    0.189111
C     -1.239889    -3.641341    1.498475
H     -2.189235    -3.244411    1.865981
O     -0.861507    -4.816493    1.926627
H     -1.510515    -5.250181    2.518756
P     0.369745    0.226544    2.441732
H     -0.156901    -0.658209    3.411807
C     0.311949    1.697603    3.358597
H     0.648180    2.636262    2.911662
O     -0.061342    1.712905    4.610246
H     0.040505    2.585131    5.044365
P     -0.404472    -0.500712    -2.663824
H     0.122163    0.384173    -3.633788
C     -0.346145    -1.971740    -3.580717
H     -0.682239    -2.910462    -3.133811
O     0.027384    -1.986967    -4.832295
H     -0.074176    -2.859222    -5.266424
