55
11/21/2023 17:07, XYZ structure generated by mol3D Class, molSimplify
Fe     -0.064004    -0.018883    0.006625
N     -0.129990    2.131140    -0.272386
N     1.987153    0.612902    0.355166
C     -1.198459    2.872597    -0.646121
C     -1.086747    4.236992    -0.875757
C     0.180056    4.809104    -0.704620
N     1.239208    4.076125    -0.337907
N     3.373501    2.539344    0.510766
C     4.401324    1.768173    0.887751
C     4.269046    0.380490    1.024796
C     3.023749    -0.164598    0.742912
C     1.054832    2.784232    -0.138591
C     2.218617    1.947739    0.264639
H     2.837388    -1.229876    0.821777
H     5.098828    -0.245374    1.335793
H     5.343095    2.275654    1.083404
H     -2.144088    2.354336    -0.759559
H     -1.945792    4.828100    -1.175047
H     0.355507    5.870637    -0.863206
N     0.253467    -2.079511    0.601324
N     -0.500050    -0.003680    2.123283
C     0.574868    -3.122776    -0.197819
C     0.636781    -4.418342    0.296765
C     0.348970    -4.594902    1.656028
N     0.025414    -3.563382    2.446677
N     -0.541691    -1.389772    4.056069
C     -0.851671    -0.327066    4.810107
C     -0.991956    0.952355    4.257470
C     -0.804175    1.071127    2.887400
C     -0.013904    -2.360712    1.903717
C     -0.375575    -1.197719    2.760727
H     -0.896235    2.025358    2.380516
H     -1.237104    1.815224    4.867659
H     -0.986010    -0.509206    5.873849
H     0.784064    -2.901251    -1.238337
H     0.896667    -5.252872    -0.345853
H     0.375184    -5.576056    2.124455
N     -2.037676    -0.362943    -0.720492
N     0.286653    -0.388878    -2.104877
C     -3.180056    -0.421637    0.002476
C     -4.391375    -0.742953    -0.592743
C     -4.372392    -1.003033    -1.969659
N     -3.239984    -0.952263    -2.683196
N     -0.905732    -0.747962    -4.132110
C     0.244265    -0.696645    -4.816194
C     1.472081    -0.484344    -4.176932
C     1.447143    -0.331185    -2.797273
C     -2.124715    -0.642275    -2.048109
C     -0.850008    -0.593319    -2.821784
H     2.355890    -0.165461    -2.228930
H     2.404641    -0.439932    -4.729476
H     0.174838    -0.827413    -5.893599
H     -3.097652    -0.202979    1.061837
H     -5.307945    -0.789288    -0.014256
H     -5.277858    -1.259005    -2.515048
