73
11/21/2023 17:07, XYZ structure generated by mol3D Class, molSimplify
Fe     -0.038347    -0.015849    0.186258
O     0.173038    1.962445    -0.225180
C     0.793081    2.881957    0.394154
N     0.870446    4.130954    -0.017603
H     1.311257    2.659174    1.331398
C     0.235687    4.590103    -1.259845
H     -0.200394    3.740186    -1.781694
H     0.989173    5.068087    -1.892203
H     -0.538932    5.325436    -1.021588
C     1.588941    5.149737    0.764015
H     2.379854    5.590465    0.150815
H     2.031096    4.698115    1.653782
H     0.892875    5.937824    1.065350
O     1.951099    -0.358979    -0.020645
C     2.717442    -0.212041    -1.023688
N     4.019529    -0.409616    -0.994187
H     2.307601    0.099239    -1.988633
C     4.723792    -0.824462    0.226063
H     4.026206    -0.840671    1.061510
H     5.533181    -0.117975    0.431057
H     5.156874    -1.818211    0.076092
C     4.845671    -0.237922    -2.199797
H     5.342518    -1.182138    -2.440078
H     5.605731    0.526542    -2.015964
H     4.222382    0.067119    -3.042123
O     -0.411149    -1.983934    0.454008
C     0.358708    -2.894793    0.897058
N     -0.029744    -4.125656    1.156962
H     1.413968    -2.676992    1.085378
C     -1.417929    -4.567267    0.966677
H     -2.025706    -3.724966    0.641222
H     -1.801774    -4.960444    1.912461
H     -1.445462    -5.365110    0.218451
C     0.916742    -5.138053    1.651920
H     0.968022    -5.968770    0.942452
H     0.571797    -5.516379    2.618154
H     1.909304    -4.699374    1.768243
O     -1.999486    0.256275    0.572019
C     -2.834431    1.103769    0.123624
N     -4.128200    1.063977    0.364295
H     -2.489820    1.930230    -0.504243
C     -4.742330    0.007990    1.179907
H     -5.524800    -0.486216    0.596813
H     -5.198256    0.454450    2.068880
H     -3.983513    -0.716584    1.469976
C     -5.037575    2.091243    -0.167574
H     -5.530271    2.608110    0.660923
H     -5.798944    1.615671    -0.792091
H     -4.479731    2.814676    -0.764665
O     0.394597    0.298453    2.141280
C     -0.344647    0.307874    3.175417
N     0.111880    0.426523    4.405289
H     -1.429693    0.213391    3.079074
C     1.545139    0.552471    4.702060
H     2.113595    0.503220    3.775127
H     1.846801    -0.260045    5.369480
H     1.727799    1.505670    5.207081
C     -0.798668    0.442204    5.561434
H     -0.545601    -0.381836    6.234171
H     -1.831976    0.332840    5.227845
H     -0.688965    1.387730    6.099927
O     -0.303925    -0.226643    -1.809601
C     -0.826446    -1.159666    -2.497123
N     -0.991547    -1.109826    -3.802874
H     -1.173874    -2.074373    -2.008849
C     -0.586644    0.054104    -4.602334
H     -1.446092    0.410237    -5.177477
H     0.202474    -0.241215    -5.300560
H     -0.229296    0.842396    -3.942235
C     -1.586178    -2.235538    -4.541418
H     -0.865331    -2.614900    -5.271139
H     -2.480495    -1.893000    -5.069187
H     -1.858301    -3.035972    -3.851252
