37
11/21/2023 17:07, XYZ structure generated by mol3D Class, molSimplify
Fe     -0.017439    -0.136878    -0.111031
N     0.233796    1.954651    -0.470828
H     -0.629765    2.497855    -0.376530
C     1.216186    2.707413    -0.853954
H     2.207852    2.283689    -1.013144
O     1.035636    3.987093    -1.055205
H     1.836712    4.461843    -1.353814
N     2.067119    -0.497487    -0.403233
H     2.306769    -0.626558    -1.390873
C     3.104742    -0.657037    0.355685
H     3.014910    -0.567095    1.438290
O     4.274913    -0.925898    -0.163158
H     4.986600    -1.044074    0.497073
N     -0.269065    -2.228394    0.249372
H     0.594828    -2.771381    0.156940
C     -1.252010    -2.981323    0.630704
H     -2.244087    -2.557786    0.787813
O     -1.071541    -4.260918    0.832635
H     -1.873083    -4.735757    1.129840
N     -2.102114    0.223400    0.181041
H     -2.341702    0.352538    1.168694
C     -3.139846    0.382649    -0.577782
H     -3.050053    0.292566    -1.660376
O     -4.310039    0.651326    -0.058882
H     -5.021786    0.769340    -0.719077
N     0.260872    0.143412    1.991918
H     0.246266    -0.730423    2.526457
C     0.371491    1.167671    2.777328
H     0.389741    2.178185    2.368857
O     0.463913    1.007785    4.072270
H     0.530416    1.844409    4.574074
N     -0.295954    -0.417486    -2.213968
H     -0.283888    0.456521    -2.748284
C     -0.404393    -1.441790    -2.999614
H     -0.419909    -2.452471    -2.591437
O     -0.497893    -1.281759    -4.294465
H     -0.562577    -2.118397    -4.796486
