25
11/21/2023 17:07, XYZ structure generated by mol3D Class, molSimplify
Fe     0.001288    0.001864    0.002070
S     -0.355305    2.378109    0.397749
C     -1.041412    2.803178    1.816229
H     -1.354248    2.104002    2.591841
H     -1.206645    3.868304    2.002537
S     2.377313    0.395099    -0.324856
C     2.785521    1.678771    -1.244448
H     3.850415    1.883292    -1.387931
H     2.077591    2.359085    -1.718329
S     0.357874    -2.374371    -0.393621
C     1.044598    -2.799341    -1.811837
H     1.357839    -2.100122    -2.587250
H     1.209849    -3.864461    -1.998165
S     -2.374753    -0.391197    0.329014
C     -2.782995    -1.674970    1.248440
H     -3.847874    -1.879507    1.392006
H     -2.075053    -2.355368    1.722175
S     0.399338    -0.347761    2.354457
C     1.710100    -1.214640    2.792889
H     2.422426    -1.661406    2.099082
H     1.893949    -1.361019    3.860380
S     -0.396669    0.351419    -2.350314
C     -1.707450    1.218209    -2.788850
H     -1.891360    1.364715    -3.856314
H     -2.419760    1.664945    -2.095005
