25
11/21/2023 17:07, XYZ structure generated by mol3D Class, molSimplify
Fe     0.163301    0.016129    0.011526
N     0.708583    2.153516    0.515907
O     2.144466    2.133324    0.337524
O     2.615490    1.111914    1.179596
N     2.362945    -0.124238    0.469992
H     0.539109    2.555376    1.452754
H     0.415679    2.876266    -0.161381
H     2.655071    -0.837864    1.157662
H     3.057833    -0.165067    -0.293918
N     -0.275020    -2.194077    -0.121694
O     -0.956972    -2.463531    1.126125
O     -0.118076    -1.957782    2.133200
N     -0.346912    -0.528650    2.147244
H     0.499829    -2.875385    -0.178611
H     -0.970362    -2.496999    -0.823117
H     0.312374    -0.209972    2.875826
H     -1.292841    -0.391236    2.540216
N     -1.976000    0.517959    -0.537031
O     -1.957537    0.340787    -1.973122
O     -0.932681    1.178242    -2.444175
N     0.300107    0.462838    -2.192114
H     -2.376542    1.455237    -0.366805
H     -2.699975    -0.158089    -0.244563
H     1.016699    1.143597    -2.493051
H     0.333179    -0.306125    -2.881834
