37
11/21/2023 17:07, XYZ structure generated by mol3D Class, molSimplify
Fe     -0.017521    -0.136952    -0.110488
N     0.229993    1.825102    -0.458158
H     -0.617296    2.378244    -0.305424
C     1.200931    2.554922    -0.902130
H     2.169773    2.113200    -1.130327
O     1.026775    3.840488    -1.077688
H     1.812329    4.305515    -1.427298
N     1.904869    -0.478558    -0.375143
H     2.149835    -0.652745    -1.353448
C     2.927447    -0.594495    0.415417
H     2.814932    -0.454292    1.489135
O     4.101703    -0.880069    -0.077238
H     4.808588    -0.967159    0.593725
N     -0.265437    -2.099008    0.237720
H     0.583856    -2.650964    0.092097
C     -1.238574    -2.830004    0.674879
H     -2.209845    -2.389654    0.895240
O     -1.063577    -4.115091    0.853104
H     -1.850966    -4.581119    1.197212
N     -1.940036    0.204405    0.154219
H     -2.184958    0.378065    1.132638
C     -2.962527    0.321188    -0.636314
H     -2.849997    0.181472    -1.710099
O     -4.136735    0.606875    -0.143591
H     -4.843545    0.694574    -0.814554
N     0.247589    0.138351    1.869623
H     0.243610    -0.733164    2.406566
C     0.344871    1.167061    2.646623
H     0.348441    2.176142    2.236120
O     0.446683    1.008430    3.943813
H     0.501435    1.846528    4.443438
N     -0.283121    -0.412358    -2.090473
H     -0.284623    0.459410    -2.626992
C     -0.375637    -1.441216    -2.867857
H     -0.373154    -2.450488    -2.457812
O     -0.479850    -1.282529    -4.164854
H     -0.530641    -2.120667    -4.664833
