25
11/21/2023 17:07, XYZ structure generated by mol3D Class, molSimplify
Fe     0.117277    0.059305    0.060171
N     0.566545    2.048579    0.318161
O     1.996025    2.115573    0.084010
O     2.545407    1.164155    0.958308
N     2.137273    -0.121097    0.423996
H     0.410876    2.479480    1.245433
H     0.195219    2.722734    -0.372409
H     2.423915    -0.777607    1.169216
H     2.766454    -0.305705    -0.375256
N     -0.245844    -1.961222    -0.118671
O     -0.771386    -2.371766    1.169604
O     0.103578    -1.816198    2.116788
N     -0.140660    -0.388389    2.049585
H     0.553350    -2.588772    -0.308989
H     -0.994701    -2.249211    -0.770344
H     0.545781    -0.011731    2.725061
H     -1.069847    -0.239783    2.478870
N     -1.871960    0.322958    -0.387785
O     -1.940900    0.093988    -1.818134
O     -0.985828    0.965534    -2.365245
N     0.297010    0.423026    -1.960211
H     -2.299553    1.251195    -0.228797
H     -2.548867    -0.366034    -0.018608
H     0.957576    1.164133    -2.248250
H     0.475003    -0.376975    -2.590344
