49
11/21/2023 17:07, XYZ structure generated by mol3D Class, molSimplify
Mn     -0.073614    -0.040307    0.026372
O     -0.121294    2.167268    -0.186287
C     1.062624    2.860577    -0.477438
C     0.774933    4.179503    -0.648473
C     -0.640866    4.334354    -0.464670
C     -1.154248    3.113954    -0.193950
H     1.483062    4.962045    -0.882997
H     -2.140407    2.723194    0.000351
H     -1.199500    5.257612    -0.534253
C     2.238330    2.037592    -0.520886
O     1.998741    0.670264    -0.318115
C     3.242561    0.029912    -0.387952
C     4.206009    0.946967    -0.627767
C     3.571284    2.232191    -0.712695
H     4.058599    3.180812    -0.890064
H     3.222357    -1.036459    -0.228369
H     5.263542    0.745624    -0.729711
O     0.471650    -2.060512    0.751688
C     0.681997    -2.267486    2.124087
C     0.993294    -3.575702    2.331632
C     0.980726    -4.226474    1.051188
C     0.660714    -3.298072    0.122960
H     1.199503    -4.038121    3.286883
H     0.511561    -3.300064    -0.945004
H     1.180492    -5.272120    0.861406
C     0.527681    -1.092557    2.935402
O     0.005105    0.020224    2.259472
C     -0.071425    1.059125    3.194601
C     0.362831    0.615417    4.394886
C     0.750712    -0.757961    4.235492
H     1.152023    -1.406769    5.001569
H     -0.443718    1.997117    2.814229
H     0.412868    1.194396    5.306743
O     -2.205905    -0.336357    -0.193359
C     -2.678449    -0.665163    -1.474588
C     -4.033079    -0.788710    -1.422604
C     -4.436979    -0.533312    -0.068458
C     -3.324244    -0.267911    0.650262
H     -4.682690    -1.040670    -2.249339
H     -3.112889    -0.054859    1.686437
H     -5.448194    -0.557711    0.313978
C     -1.678592    -0.785026    -2.501423
O     -0.346399    -0.648780    -2.081972
C     0.454830    -0.792605    -3.221661
C     -0.334325    -1.018915    -4.295041
C     -1.697010    -1.012541    -3.843649
H     -2.576934    -1.157383    -4.454985
H     1.517612    -0.701402    -3.061354
H     0.004126    -1.172069    -5.310587
