55
11/21/2023 17:08, XYZ structure generated by mol3D Class, molSimplify
Mn     -0.407613    0.043706    -0.264044
S     -0.809447    2.535435    0.069300
C     -1.653807    3.000255    1.537765
C     -0.949133    3.952173    2.202500
C     0.312538    4.278355    1.580520
C     0.561377    3.569581    0.449296
H     -2.628155    2.584678    1.752609
H     -1.311310    4.430386    3.106235
H     1.402413    3.630831    -0.227208
H     0.992859    5.029861    1.966514
S     2.033711    0.525353    -0.734898
C     2.782691    -0.292999    -2.095076
C     3.939196    -0.889067    -1.702833
C     4.203102    -0.763596    -0.289113
C     3.248326    -0.070742    0.382983
H     2.353951    -0.201888    -3.082668
H     4.607324    -1.393076    -2.393027
H     3.189550    0.197403    1.427666
H     5.087891    -1.167555    0.190822
S     -0.241578    -2.445945    -0.854124
C     1.246109    -3.298085    -0.482758
C     0.975445    -4.429100    0.218540
C     -0.423742    -4.595861    0.530287
C     -1.208336    -3.587056    0.067256
H     2.185220    -2.926618    -0.866228
H     1.739331    -5.145411    0.501111
H     -2.283778    -3.482204    0.106079
H     -0.819779    -5.453708    1.063146
S     -2.952793    -0.417114    0.016085
C     -4.023604    0.679702    -0.846303
C     -4.956360    1.187135    -0.000280
C     -4.793259    0.753536    1.366782
C     -3.733599    -0.076431    1.552934
H     -3.930322    0.798706    -1.916648
H     -5.756922    1.840600    -0.329392
H     -3.396527    -0.568466    2.454600
H     -5.462897    1.043381    2.169590
S     -0.140929    -0.302347    2.234179
C     0.949729    0.760725    3.110180
C     1.839167    0.026515    3.828508
C     1.709736    -1.397144    3.629772
C     0.719297    -1.736366    2.765970
H     0.791640    1.829297    3.094738
H     2.562592    0.471995    4.503195
H     0.379214    -2.712898    2.453691
H     2.329246    -2.129408    4.135805
S     -0.948041    0.450628    -2.777934
C     -0.326848    -0.625264    -4.018128
C     0.301650    0.091760    -4.986766
C     0.358402    1.507924    -4.714775
C     -0.233335    1.860509    -3.543770
H     -0.541990    -1.683833    -3.974482
H     0.703314    -0.360401    -5.887320
H     -0.382217    2.843957    -3.119589
H     0.811817    2.227979    -5.387274
