37
11/21/2023 17:07, XYZ structure generated by mol3D Class, molSimplify
Mn     -0.017227    -0.137088    -0.111006
P     2.332466    -0.593792    -0.418314
H     2.905456    -1.220798    -1.545626
C     3.621814    -0.658340    0.692897
H     3.486245    -0.269075    1.703326
O     4.817350    -1.134785    0.372579
H     5.451830    -1.064909    1.108676
P     -2.367106    0.319630    0.196065
H     -2.940193    0.946777    1.323254
C     -3.656400    0.383913    -0.915219
H     -3.520781    -0.005496    -1.925586
O     -4.851977    0.860329    -0.595025
H     -5.486425    0.790290    -1.331134
P     0.257865    2.218358    -0.524008
H     -0.732069    3.094999    -1.018874
C     1.681762    3.096331    -0.857788
H     2.652737    2.652074    -0.634001
O     1.664296    4.324580    -1.350187
H     2.558900    4.700285    -1.441759
P     -0.292535    -2.492626    0.301825
H     0.697284    -3.369371    0.796744
C     -1.716522    -3.370491    0.635503
H     -2.687442    -2.926133    0.411680
O     -1.699190    -4.598771    1.127831
H     -2.593831    -4.974402    1.219337
P     0.399807    0.210449    2.250768
H     0.452917    -0.813233    3.222706
C     -0.043763    1.550880    3.210544
H     -0.209612    2.520461    2.737634
O     -0.132153    1.488074    4.529807
H     -0.299634    2.359979    4.932213
P     -0.434483    -0.484328    -2.472862
H     -0.487790    0.539542    -3.444585
C     0.008668    -1.824609    -3.433023
H     0.174600    -2.794298    -2.960362
O     0.096673    -1.761578    -4.752301
H     0.264086    -2.633411    -5.154889
