31
11/21/2023 17:07, XYZ structure generated by mol3D Class, molSimplify
Mn     0.023118    -0.033435    -0.062700
P     -0.260694    2.279015    -0.489836
H     -1.111386    2.727647    -1.522132
H     -0.746464    3.096594    0.559233
N     1.233657    2.967276    -0.992961
H     1.261610    3.332473    -1.941794
N     2.407245    2.261205    -0.668958
H     2.973039    2.756179    0.015451
P     2.283473    0.557876    -0.484882
H     2.928491    -0.022483    -1.603694
H     3.283602    0.322708    0.482266
P     0.453248    -2.295587    0.511582
H     1.609362    -2.921579    -0.013358
H     -0.488664    -3.307398    0.230277
N     0.561698    -2.442549    2.222757
H     -0.175278    -2.980607    2.672177
N     0.872334    -1.275480    2.947584
H     1.783892    -1.336666    3.393794
P     0.452800    0.233731    2.243733
H     1.518093    1.047528    2.684989
H     -0.578554    0.789543    3.039047
P     -2.292088    -0.463229    0.190785
H     -2.734437    -1.615009    0.886335
H     -3.099975    0.499394    0.831681
N     -3.028040    -0.538038    -1.360095
H     -3.672644    0.210295    -1.601913
N     -2.192942    -0.892344    -2.436323
H     -2.414484    -1.811897    -2.808825
P     -0.535198    -0.459467    -2.329115
H     0.087843    -1.536287    -2.994294
H     -0.321803    0.543469    -3.306445
