31
11/21/2023 17:07, XYZ structure generated by mol3D Class, molSimplify
Mn     -0.037497    -0.011602    -0.012813
N     0.221138    2.303500    -0.041312
N     1.593975    2.391538    -0.491016
N     2.364955    1.622129    0.463215
N     2.278136    0.248989    0.014035
H     0.066067    2.859101    0.808735
H     -0.358749    2.697755    -0.784666
H     1.924929    3.355668    -0.387459
H     3.328538    1.954275    0.358267
H     2.833063    0.094398    -0.836514
H     2.673761    -0.330273    0.757135
N     -0.052901    -2.327660    0.252272
N     -0.513355    -2.414526    1.621673
N     0.431060    -1.638479    2.397964
N     -0.023777    -0.267701    2.303512
H     0.802944    -2.876925    0.107001
H     -0.788224    -2.729883    -0.332357
H     -0.407798    -3.377319    1.955910
H     0.320185    -1.968004    3.361771
H     -0.879055    -0.115470    2.851741
H     0.713755    0.316307    2.702578
N     -2.353362    -0.029786    -0.278194
N     -2.440097    -0.491644    -1.647012
N     -1.662428    0.450706    -2.424599
N     -0.292187    -0.005501    -2.329013
H     -2.904434    0.824829    -0.132677
H     -2.753467    -0.765698    0.307152
H     -3.402339    -0.384533    -1.982345
H     -1.992012    0.338268    -3.388227
H     -0.141386    -0.862888    -2.874337
H     0.292492    0.729986    -2.730880
