73
11/21/2023 17:07, XYZ structure generated by mol3D Class, molSimplify
Mn     -0.013076    -0.007695    0.002772
S     0.490779    2.465836    0.374527
C     0.474770    4.975029    2.393415
C     -0.782477    4.510271    1.707919
C     -0.894466    3.477646    0.870479
C     1.656800    2.850166    1.675119
C     1.559433    3.932872    2.449602
H     0.236753    5.313017    3.410027
H     0.858707    5.875536    1.885297
H     -1.687455    5.079138    1.912330
H     -1.822436    3.203434    0.385354
H     2.479020    2.147094    1.736109
H     2.343510    4.082248    3.189537
S     2.460816    -0.381246    0.504905
C     4.968914    -2.400782    0.489289
C     3.926919    -2.456713    1.574183
C     2.844597    -1.681679    1.671337
C     3.470570    -0.879899    -0.880879
C     4.503088    -1.717490    -0.768815
H     5.308008    -3.417292    0.252554
H     5.868849    -1.891038    0.872427
H     4.075987    -3.196717    2.358256
H     2.141439    -1.742199    2.493503
H     3.195197    -0.396329    -1.809319
H     5.070634    -1.923955    -1.674162
S     -0.513407    -2.481840    -0.369294
C     -0.502835    -4.990945    -2.387827
C     -1.589302    -3.950399    -2.439608
C     -1.684713    -2.867830    -1.664660
C     0.871425    -3.490490    -0.872676
C     0.757228    -4.523527    -1.709306
H     -0.269467    -5.329626    -3.405265
H     -0.882932    -5.891461    -1.876826
H     -2.376297    -4.100864    -3.176219
H     -2.508075    -2.165798    -1.722170
H     1.801468    -3.213748    -0.393053
H     1.662409    -5.090184    -1.918901
S     -2.486776    0.365719    -0.497613
C     -4.994277    2.386637    -0.482075
C     -4.527897    1.703882    0.776069
C     -3.495699    0.865932    0.888171
C     -2.871914    1.664110    -1.665841
C     -3.953827    2.439726    -1.568549
H     -5.331294    3.403994    -0.245888
H     -5.895693    1.878158    -0.863402
H     -5.094849    1.911109    1.681613
H     -3.219979    0.383105    1.816867
H     -2.169965    1.722850    -2.489179
H     -4.103794    3.178129    -2.353961
S     -0.385525    -0.508378    2.476722
C     -2.406488    -0.491311    4.984342
C     -2.460051    -1.577908    3.944055
C     -1.684548    -1.675787    2.862125
C     -0.884314    0.877687    3.485968
C     -1.722272    0.766124    4.518228
H     -1.898938    -0.872974    5.886132
H     -3.423825    -0.254093    5.320735
H     -3.198775    -2.362971    4.094239
H     -1.743573    -2.499347    2.160449
H     -0.400399    1.805944    3.210580
H     -1.928368    1.671709    5.085526
S     0.359585    0.493815    -2.470848
C     2.382846    0.470839    -4.977845
C     2.437494    1.557759    -3.938027
C     1.661541    1.657725    -2.856604
C     0.852222    -0.892522    -3.482654
C     1.691501    -0.783518    -4.514097
H     3.400423    0.229101    -5.310466
H     1.880406    0.854250    -5.881738
H     3.177635    2.341500    -4.088234
H     1.721934    2.481637    -2.155457
H     0.363041    -1.818738    -3.209707
H     1.892678    -1.689110    -5.083161
