49
11/21/2023 17:07, XYZ structure generated by mol3D Class, molSimplify
Mn     -0.028909    0.124137    0.064279
O     0.087351    2.171930    -0.117383
C     1.377215    2.695913    -0.287031
C     1.291368    4.051605    -0.379428
C     -0.097391    4.399210    -0.268327
C     -0.798799    3.253240    -0.115525
H     2.116345    4.736436    -0.518811
H     -1.839695    2.994629    -0.006169
H     -0.512886    5.396780    -0.306332
C     2.413623    1.703841    -0.333800
O     1.949604    0.375796    -0.261671
C     3.074215    -0.460922    -0.349981
C     4.178321    0.306847    -0.474732
C     3.766904    1.684248    -0.464839
H     4.412275    2.547551    -0.549582
H     2.875243    -1.518995    -0.300597
H     5.192995    -0.056349    -0.564847
O     0.177970    -1.945038    0.359577
C     0.290509    -2.338472    1.699210
C     0.299583    -3.698996    1.761847
C     0.184296    -4.185290    0.417010
C     0.105164    -3.113277    -0.404503
H     0.373948    -4.296889    2.659491
H     0.006108    -2.978287    -1.469540
H     0.160390    -5.221743    0.109629
C     0.366088    -1.261891    2.647395
O     0.195153    0.022226    2.097272
C     0.290599    0.939973    3.154365
C     0.503817    0.264024    4.303840
C     0.554702    -1.137625    3.988663
H     0.717920    -1.946756    4.686973
H     0.189879    1.975285    2.871588
H     0.620411    0.703499    5.285022
O     -2.069968    -0.051803    -0.029301
C     -2.633775    -0.357574    -1.278415
C     -3.978048    -0.505310    -1.124749
C     -4.277821    -0.290840    0.263020
C     -3.117517    -0.020540    0.901239
H     -4.686947    -0.738035    -1.907129
H     -2.825345    0.190784    1.917193
H     -5.255856    -0.337886    0.721943
C     -1.692543    -0.411109    -2.361272
O     -0.357312    -0.202361    -1.990509
C     0.410426    -0.284003    -3.155943
C     -0.405616    -0.539668    -4.204152
C     -1.748833    -0.621584    -3.705486
H     -2.641127    -0.810052    -4.286131
H     1.470718    -0.129397    -3.037658
H     -0.095738    -0.655178    -5.233710
