55
11/21/2023 17:07, XYZ structure generated by mol3D Class, molSimplify
Mn     -0.003859    -0.007946    -0.004905
N     0.029352    2.268588    -0.302501
N     2.167341    0.690908    0.250924
C     -1.019786    3.041528    -0.642686
C     -0.874341    4.392911    -0.926946
C     0.420133    4.912761    -0.847406
N     1.470264    4.156215    -0.512082
N     3.575863    2.612637    0.317996
C     4.606518    1.837004    0.670037
C     4.473817    0.456024    0.836343
C     3.212193    -0.078645    0.611119
C     1.238231    2.874551    -0.253638
C     2.404891    2.016759    0.125440
H     3.012566    -1.140290    0.717791
H     5.310317    -0.169688    1.126679
H     5.558601    2.339216    0.823779
H     -1.985362    2.547179    -0.684290
H     -1.724087    5.008820    -1.199163
H     0.626278    5.959550    -1.057373
N     0.320697    -2.167641    0.690053
N     -0.409172    -0.057417    2.248028
C     0.612594    -3.225278    -0.091311
C     0.648178    -4.519769    0.409713
C     0.358161    -4.672885    1.767935
N     0.063264    -3.631759    2.553151
N     -0.383552    -1.469946    4.167832
C     -0.657841    -0.414229    4.940896
C     -0.813722    0.870797    4.414721
C     -0.676455    0.999767    3.038976
C     0.056009    -2.428719    1.991076
C     -0.268257    -1.254817    2.862520
H     -0.776623    1.959030    2.540539
H     -1.029632    1.726304    5.044845
H     -0.750384    -0.607125    6.006993
H     0.815890    -3.011174    -1.135901
H     0.886071    -5.366026    -0.224948
H     0.358622    -5.651144    2.242632
N     -2.178465    -0.336996    -0.674384
N     0.017702    -0.425839    -2.259568
C     -3.259770    -0.363799    0.128135
C     -4.520102    -0.698676    -0.349677
C     -4.610659    -1.012992    -1.708110
N     -3.544377    -0.994254    -2.514602
N     -1.362273    -0.812291    -4.164632
C     -0.279221    -0.778860    -4.947917
C     1.002439    -0.563799    -4.434564
C     1.099935    -0.388272    -3.060321
C     -2.379054    -0.660608    -1.972883
C     -1.175533    -0.635290    -2.862069
H     2.053878    -0.209344    -2.573493
H     1.878271    -0.532506    -5.072879
H     -0.447867    -0.925631    -6.012012
H     -3.093126    -0.107455    1.169897
H     -5.386447    -0.716439    0.301983
H     -5.557693    -1.288874    -2.165617
