73
11/21/2023 17:07, XYZ structure generated by mol3D Class, molSimplify
Mn     -0.031556    -0.000596    0.221251
O     0.101344    2.140216    -0.267561
C     0.671771    3.067786    0.347084
N     0.719745    4.334488    -0.065088
H     1.187639    2.879806    1.297585
C     0.088427    4.753905    -1.315711
H     -0.313987    3.876257    -1.819633
H     0.829639    5.241357    -1.957064
H     -0.717058    5.466546    -1.107905
C     1.393379    5.368905    0.718944
H     2.186436    5.834840    0.125163
H     1.834461    4.928469    1.615798
H     0.678430    6.142852    1.017343
O     2.105178    -0.512404    0.048485
C     2.847502    -0.373804    -0.948623
N     4.156711    -0.625163    -0.961203
H     2.441554    -0.023045    -1.905577
C     4.857171    -1.093125    0.234303
H     4.159944    -1.106886    1.070790
H     5.690643    -0.420006    0.459280
H     5.256267    -2.099066    0.064989
C     4.954520    -0.457244    -2.175088
H     5.402420    -1.412679    -2.467693
H     5.756972    0.267081    -2.001606
H     4.321870    -0.097828    -2.989531
O     -0.514792    -2.135559    0.378751
C     0.242784    -3.051282    0.772181
N     -0.140623    -4.309647    0.985574
H     1.304729    -2.856821    0.969299
C     -1.526092    -4.730588    0.778995
H     -2.111367    -3.871632    0.453958
H     -1.936547    -5.124576    1.714508
H     -1.565778    -5.518960    0.020019
C     0.801729    -5.329276    1.445379
H     0.860471    -6.144082    0.716518
H     0.471385    -5.739316    2.405217
H     1.794074    -4.890301    1.569495
O     -2.135213    0.255915    0.768898
C     -2.952382    1.092723    0.323660
N     -4.260867    1.080881    0.573405
H     -2.616151    1.912982    -0.323880
C     -4.868604    0.043264    1.406163
H     -5.656225    -0.466595    0.841965
H     -5.314588    0.494002    2.299234
H     -4.101519    -0.673536    1.695817
C     -5.153727    2.104224    0.031176
H     -5.642459    2.648458    0.845956
H     -5.924716    1.638382    -0.591094
H     -4.585051    2.810753    -0.577269
O     0.488228    0.394696    2.300866
C     -0.245849    0.414165    3.314126
N     0.195003    0.565719    4.562468
H     -1.332933    0.301001    3.222277
C     1.620230    0.717181    4.855543
H     2.178925    0.676121    3.921640
H     1.949012    -0.088878    5.519687
H     1.796896    1.675438    5.355160
C     -0.721973    0.578260    5.701887
H     -0.473284    -0.234795    6.391477
H     -1.749360    0.448311    5.355063
H     -0.643551    1.529812    6.237635
O     -0.171984    -0.168900    -1.971737
C     -0.682605    -1.086908    -2.651329
N     -0.813850    -1.063664    -3.977514
H     -1.065734    -1.994793    -2.168880
C     -0.364925    0.081868    -4.768257
H     -1.199174    0.469203    -5.362175
H     0.435577    -0.224330    -5.450294
H     -0.002168    0.856229    -4.093790
C     -1.408296    -2.182955    -4.707415
H     -0.684868    -2.595735    -5.418018
H     -2.290362    -1.844604    -5.260621
H     -1.707034    -2.966996    -4.008257
