73
11/21/2023 17:07, XYZ structure generated by mol3D Class, molSimplify
Mn     -0.013242    -0.008205    0.002621
S     0.504844    2.637693    0.400009
C     0.518012    5.053963    2.513169
C     -0.763335    4.579648    1.877332
C     -0.887206    3.583622    0.998435
C     1.719272    2.989150    1.666178
C     1.625310    4.032243    2.492559
H     0.322218    5.362549    3.547486
H     0.859946    5.973214    2.008520
H     -1.673062    5.105134    2.161262
H     -1.830902    3.289826    0.554329
H     2.554909    2.298329    1.666470
H     2.428339    4.164835    3.214978
S     2.632688    -0.405343    0.520661
C     5.049419    -2.518046    0.533342
C     4.027680    -2.497759    1.640638
C     2.984377    -1.671664    1.734850
C     3.578916    -1.003247    -0.871413
C     4.575125    -1.881989    -0.747901
H     5.358082    -3.552300    0.337321
H     5.968633    -2.013414    0.875402
H     4.160457    -3.220273    2.443552
H     2.293593    -1.672254    2.570519
H     3.285064    -0.558931    -1.814991
H     5.100710    -2.165533    -1.657697
S     -0.531423    -2.654257    -0.394193
C     -0.543757    -5.070220    -2.507933
C     -1.651315    -4.048795    -2.487070
C     -1.745648    -3.005875    -1.660515
C     0.860777    -3.600087    -0.992438
C     0.737338    -4.595957    -1.871575
H     -0.347648    -5.378247    -3.542363
H     -0.885582    -5.989816    -2.003839
H     -2.454318    -4.181497    -3.209497
H     -2.581524    -2.315346    -1.660701
H     1.804314    -3.306382    -0.547946
H     1.647205    -5.121345    -2.155251
S     -2.659344    0.388354    -0.515641
C     -5.075577    2.501729    -0.528142
C     -4.601131    1.865864    0.753131
C     -3.605095    0.986902    0.876497
C     -3.011116    1.654393    -1.730109
C     -4.054178    2.480770    -1.635738
H     -5.383835    3.536141    -0.332312
H     -5.995067    1.997316    -0.869787
H     -5.126400    2.149728    1.663013
H     -3.311170    0.542667    1.820090
H     -2.320633    1.654554    -2.566023
H     -4.187043    3.203056    -2.438840
S     -0.410480    -0.526188    2.648632
C     -2.523805    -0.538359    5.064893
C     -2.503246    -1.645765    4.043280
C     -1.676952    -1.740268    3.000162
C     -1.008474    0.865991    3.594668
C     -1.887484    0.742772    4.590677
H     -2.019509    -0.880354    5.984314
H     -3.558144    -0.342212    5.373191
H     -3.225818    -2.448628    4.176020
H     -1.677428    -2.576063    2.309533
H     -0.563940    1.809477    3.300872
H     -2.171013    1.652658    5.116112
S     0.383745    0.509992    -2.643338
C     2.497144    0.522943    -5.059436
C     2.476052    1.630413    -4.037905
C     1.649659    1.724672    -2.994846
C     0.982611    -0.882083    -3.588995
C     1.861577    -0.758477    -4.584995
H     3.531557    0.327347    -5.367831
H     1.992547    0.864572    -5.978829
H     3.198306    2.433555    -4.170659
H     1.649748    2.560491    -2.304248
H     0.538593    -1.825773    -3.295049
H     2.145717    -1.668285    -5.110233
