49
11/21/2023 17:07, XYZ structure generated by mol3D Class, molSimplify
Mn     0.013936    -0.222973    -0.071734
P     -0.501867    2.467704    -0.524267
H     -1.391484    3.004794    0.433992
H     -1.290215    2.718770    -1.669796
C     0.701013    3.893133    -0.664392
H     1.303782    3.917443    0.257616
H     1.378191    3.676137    -1.505412
O     -0.074915    5.045688    -0.854230
H     0.508286    5.809748    -1.005095
P     2.731075    0.173864    -0.534200
H     3.119466    1.519527    -0.346604
H     3.101452    0.063791    -1.893323
C     4.199688    -0.675474    0.255712
H     4.131269    -0.522833    1.344242
H     4.111451    -1.755444    0.058373
O     5.339377    -0.093401    -0.318710
H     6.138306    -0.507879    0.050999
P     0.529697    -2.913627    0.380856
H     1.317928    -3.164776    1.526443
H     1.419349    -3.450754    -0.577343
C     -0.673311    -4.338958    0.520835
H     -1.350535    -4.121941    1.361811
H     -1.276011    -4.363185    -0.401219
O     0.102513    -5.491581    0.710687
H     -0.480755    -6.255586    0.861563
P     -2.703231    -0.619759    0.390662
H     -3.073659    -0.509753    1.749777
H     -3.091717    -1.965380    0.202955
C     -4.171752    0.229733    -0.399256
H     -4.083459    1.309681    -0.201822
H     -4.103288    0.077179    -1.487795
O     -5.311501    -0.352318    0.175066
H     -6.110389    0.062233    -0.194649
P     0.412861    0.211473    2.640992
H     1.767880    0.092906    3.022965
H     -0.110652    -0.782311    3.498020
C     -0.038419    1.748043    3.607079
H     0.374035    2.615713    3.066719
H     -1.135942    1.836784    3.600647
O     0.504557    1.585262    4.889104
H     0.199929    2.306009    5.467086
P     -0.384867    -0.657485    -2.784446
H     0.138959    0.336104    -3.641508
H     -1.739782    -0.538840    -3.166760
C     0.066520    -2.194245    -3.750163
H     1.164023    -2.283192    -3.743263
H     -0.346320    -3.061771    -3.209867
O     -0.475884    -2.031519    -5.032433
H     -0.171252    -2.752462    -5.610168
