37
11/21/2023 17:07, XYZ structure generated by mol3D Class, molSimplify
Mn     -0.017746    -0.136986    -0.110748
N     0.179354    1.892420    -0.468413
H     -0.673164    2.454676    -0.388210
C     1.181818    2.612821    -0.818752
H     2.163732    2.160922    -0.953878
O     1.059670    3.916956    -1.024194
H     1.897541    4.329113    -1.300152
N     2.015585    -0.465426    -0.395822
H     2.261120    -0.609026    -1.380254
C     3.045986    -0.604477    0.353779
H     2.959448    -0.495398    1.434474
O     4.247296    -0.876044    -0.152797
H     4.923540    -0.973068    0.540090
N     -0.214578    -2.166373    0.247466
H     0.638624    -2.728054    0.170634
C     -1.217968    -2.887470    0.593703
H     -2.200710    -2.436246    0.725010
O     -1.095779    -4.191549    0.799457
H     -1.934430    -4.604247    1.072216
N     -2.051149    0.191323    0.174356
H     -2.296487    0.334738    1.158865
C     -3.081679    0.330708    -0.575007
H     -2.995438    0.221855    -1.655753
O     -4.282844    0.602314    -0.068121
H     -4.959226    0.699597    -0.760838
N     0.257252    0.165607    1.921939
H     0.310838    -0.713102    2.444344
C     0.322041    1.173782    2.711288
H     0.269320    2.188145    2.317820
O     0.463198    1.018183    4.024922
H     0.481122    1.869513    4.495975
N     -0.293045    -0.439606    -2.143329
H     -0.351466    0.439051    -2.665292
C     -0.353417    -1.447709    -2.933130
H     -0.295397    -2.462003    -2.540219
O     -0.496525    -1.292162    -4.246560
H     -0.510819    -2.143337    -4.718022
