61
11/21/2023 17:07, XYZ structure generated by mol3D Class, molSimplify
Mn     2.643783    0.000383    5.045119
O     3.671509    1.075726    3.411186
O     0.635573    0.356641    4.246985
O     2.635870    1.834139    6.287121
N     4.649456    2.841199    4.436641
N     1.084570    0.854395    2.079341
N     0.423985    2.292067    6.458886
C     4.486552    2.042825    3.377807
C     5.294836    2.339596    2.177079
C     5.314036    1.526139    1.116950
C     0.231536    0.553762    3.063243
C     -1.200525    0.461731    2.711304
C     -2.118896    0.060287    3.595439
C     1.694501    2.481875    6.829860
C     1.945737    3.477377    7.892533
C     3.156773    3.641640    8.433555
O     1.616159    -1.076664    6.677856
O     4.652048    -0.355888    5.843062
O     2.651711    -1.833321    3.802128
N     0.638661    -2.841906    5.651432
N     4.203149    -0.856646    8.010028
N     4.863893    -2.289587    3.629505
C     0.801099    -2.043768    6.710507
C     -0.007720    -2.340913    7.910793
C     -0.027071    -1.527863    8.971229
C     5.056148    -0.554721    7.026500
C     6.488233    -0.463269    7.378484
C     7.406550    -0.060633    6.494837
C     3.593404    -2.479914    3.258652
C     3.342662    -3.474718    2.195190
C     2.131660    -3.639105    1.654137
H     5.290071    3.623063    4.414661
H     4.078510    2.682226    5.267212
H     0.759682    1.015901    1.135464
H     2.078528    0.964289    2.286698
H     -0.333920    2.804316    6.889619
H     0.216084    1.629165    5.711925
H     5.891049    3.248800    2.191661
H     5.916078    1.752338    0.242893
H     4.732905    0.608556    1.099922
H     -1.482658    0.726453    1.695139
H     -3.168577    -0.006954    3.328654
H     -1.840034    -0.216819    4.607895
H     1.098769    4.068507    8.232363
H     3.331406    4.370997    9.217798
H     4.002981    3.043334    8.108527
H     -0.002024    -3.623723    5.673046
H     1.210004    -2.682940    4.821131
H     4.528058    -1.019407    8.953683
H     3.209202    -0.966345    7.802542
H     5.622030    -2.801002    3.198194
H     5.071545    -1.627169    4.376964
H     -0.604108    -3.249995    7.895633
H     -0.629448    -1.754240    9.845010
H     0.554289    -0.610437    8.988810
H     6.770422    -0.729394    8.394266
H     8.456256    0.006205    6.761629
H     7.127610    0.217902    5.482794
H     4.189899    -4.065168    1.854846
H     1.957289    -4.367921    0.869333
H     1.285205    -3.041444    1.979711
