49
11/21/2023 17:07, XYZ structure generated by mol3D Class, molSimplify
Mn     -0.000069    5.920406    4.080183
N     -0.707488    3.965434    3.036343
N     -1.984711    3.668077    2.955116
N     -2.052651    2.497105    2.319993
H     -2.961790    2.081964    2.151038
C     0.036777    2.982036    2.454168
C     -0.828816    2.021490    1.984525
H     1.112499    3.037746    2.407055
H     -0.680732    1.086998    1.465495
N     1.659299    6.184157    2.494717
N     2.498826    5.204702    2.243180
N     3.323003    5.659316    1.297621
H     4.057939    5.052261    0.952834
C     1.950586    7.261382    1.711655
C     3.031816    6.930455    0.927937
H     1.370084    8.168717    1.760749
H     3.588472    7.468382    0.175984
N     -1.467996    7.150973    2.792204
N     -1.132038    8.325594    2.309219
N     -2.203124    8.773712    1.652129
H     -2.156774    9.677331    1.195138
C     -2.752684    6.853225    2.446217
C     -3.240745    7.902621    1.702874
H     -3.213033    5.923656    2.741308
H     -4.192217    8.090425    1.229585
N     0.707560    7.875372    5.124162
N     1.984744    8.173160    5.204469
N     2.052801    9.344287    5.839303
H     2.961894    9.759778    6.007638
C     -0.036614    8.858704    5.706565
C     0.829027    9.819591    6.175419
H     -1.112289    8.802703    5.754389
H     0.681007    10.754153    6.694336
N     -1.659628    5.657220    5.665274
N     -2.499182    6.636627    5.916876
N     -3.323344    6.181918    6.862403
H     -4.058296    6.788948    7.207195
C     -1.950902    4.579944    6.448273
C     -3.032162    4.910755    7.232006
H     -1.370365    3.672635    6.399117
H     -3.588819    4.372759    7.983909
N     1.468274    4.690442    5.367813
N     1.132194    3.516136    5.851506
N     2.203143    3.068286    6.509008
H     2.156738    2.164939    6.966537
C     2.752937    4.988251    5.713803
C     3.240817    3.939286    6.457875
H     3.213416    5.917588    5.418191
H     4.192214    3.751702    6.931402
