49
11/21/2023 17:08, XYZ structure generated by mol3D Class, molSimplify
Mn     0.000045    5.920757    4.079947
N     -0.796888    4.022481    2.980042
N     -2.074121    3.708928    3.075526
N     -2.234029    2.591732    2.371531
H     -3.158119    2.173091    2.311433
C     -0.150288    3.095428    2.216360
C     -1.078145    2.160257    1.815325
H     0.906052    3.158288    2.014070
H     -1.009038    1.268953    1.208890
N     1.455345    6.249438    2.620793
N     2.228363    5.243578    2.257638
N     3.043649    5.738535    1.341244
H     3.733658    5.123201    0.916516
C     1.789901    7.384336    1.937305
C     2.826601    7.054100    1.096409
H     1.286972    8.324364    2.088592
H     3.397938    7.627060    0.380266
N     -1.346892    7.086779    3.073017
N     -1.043375    8.336295    2.785150
N     -2.111133    8.823058    2.176102
H     -2.094934    9.790062    1.859668
C     -2.611243    6.782261    2.652232
C     -3.114923    7.917550    2.062617
H     -3.045918    5.806614    2.801970
H     -4.063355    8.138649    1.594321
N     0.796815    7.818979    5.180089
N     2.074241    8.132120    5.085851
N     2.233673    9.249336    5.789868
H     3.157868    9.667628    5.850800
C     0.149614    8.746261    5.943017
C     1.077344    9.681203    6.344859
H     -0.906937    8.683683    6.144311
H     1.007886    10.572607    6.951106
N     -1.455060    5.592083    5.539300
N     -2.228723    6.597719    5.901744
N     -3.043603    6.102936    6.818591
H     -3.733990    6.718073    7.242988
C     -1.788832    4.457453    6.223606
C     -2.825670    4.787684    7.064324
H     -1.285346    3.517619    6.072909
H     -3.396580    4.214883    7.780933
N     1.346788    4.754650    5.087028
N     1.043097    3.505165    5.374709
N     2.110872    3.018113    5.983567
H     2.094392    2.051048    6.299791
C     2.611260    5.058716    5.507747
C     3.114928    3.923311    6.097166
H     3.046056    6.034324    5.358157
H     4.063376    3.701967    6.565317
