43
11/21/2023 17:08, XYZ structure generated by mol3D Class, molSimplify
Mn     -0.001126    -0.001960    0.000244
N     1.417683    0.278586    1.441135
N     1.590289    1.536210    1.961120
N     2.507286    1.524533    2.850316
N     2.950697    0.248509    2.928756
C     2.284624    -0.517024    2.066780
H     3.695105    0.006811    3.582956
H     2.437331    -1.572685    1.900479
N     -0.647324    -1.631434    1.038398
N     -0.725366    -1.560700    2.405986
N     -1.145092    -2.669057    2.881734
N     -1.347927    -3.490067    1.824720
C     -1.043954    -2.856384    0.694340
H     -1.689775    -4.439379    1.974567
H     -1.124160    -3.257386    -0.304851
N     1.215716    -1.234959    -1.058435
N     1.907866    -2.213836    -0.392729
N     2.615607    -2.888995    -1.213877
N     2.393099    -2.359616    -2.440249
C     1.535515    -1.345990    -2.347529
H     2.864057    -2.749359    -3.256828
H     1.183476    -0.725871    -3.158166
N     -1.419864    -0.282418    -1.440587
N     -1.592103    -1.539950    -1.960904
N     -2.509183    -1.528188    -2.850019
N     -2.953103    -0.252306    -2.928214
C     -2.287114    0.513033    -2.066015
H     -3.697617    -0.010628    -3.582302
H     -2.440071    1.568607    -1.899408
N     0.644976    1.627527    -1.038022
N     0.723056    1.556932    -2.405626
N     1.142843    2.665228    -2.881483
N     1.345618    3.486119    -1.824401
C     1.041581    2.852478    -0.693998
H     1.687489    4.435425    -1.974226
H     1.121799    3.253488    0.305184
N     -1.217698    1.231151    1.058874
N     -1.910419    2.209666    0.393279
N     -2.618082    2.884677    1.214630
N     -2.394959    2.355746    2.441096
C     -1.537040    1.342440    2.348067
H     -2.865713    2.745486    3.257797
H     -1.184482    0.722575    3.158665
