61
11/21/2023 17:08, XYZ structure generated by mol3D Class, molSimplify
Mn     2.643846    0.000035    5.044349
O     3.471544    0.919341    3.555303
O     0.837497    0.309289    4.324844
O     2.632928    1.839068    6.290281
N     4.492103    2.771900    4.403930
N     1.099941    0.337871    2.055011
N     0.485760    2.558246    6.406322
C     4.282073    1.917112    3.418769
C     4.982462    2.123407    2.146242
C     5.067078    1.181232    1.197713
C     0.338178    0.368584    3.138373
C     -1.114730    0.476170    2.956422
C     -1.989727    0.327051    3.959936
C     1.766716    2.644155    6.769364
C     2.129308    3.693550    7.735437
C     3.347396    3.768871    8.285836
O     1.816289    -0.919367    6.533371
O     4.450210    -0.309290    5.763839
O     2.654867    -1.839031    3.798412
N     0.795719    -2.771917    5.684710
N     4.187755    -0.337660    8.033702
N     4.802009    -2.558239    3.682435
C     1.005777    -1.917160    6.669891
C     0.305427    -2.123487    7.942434
C     0.220730    -1.181331    8.890976
C     4.949497    -0.368524    6.950322
C     6.402399    -0.476217    7.132281
C     7.277438    -0.327185    6.128793
C     3.521063    -2.644138    3.319349
C     3.158477    -3.693543    2.353282
C     1.940405    -3.768789    1.802840
H     5.120129    3.558707    4.281224
H     3.981026    2.670650    5.284835
H     0.687813    0.402369    1.130896
H     2.112141    0.315709    2.136853
H     -0.210539    3.204069    6.759499
H     0.208350    1.876323    5.707777
H     5.467517    3.087372    2.013384
H     5.610542    1.366628    0.276353
H     4.621479    0.197702    1.317401
H     -1.462301    0.667896    1.944181
H     -3.058051    0.403357    3.782546
H     -1.672239    0.112672    4.976382
H     1.355478    4.408384    8.003959
H     3.593447    4.546593    9.001940
H     4.126098    3.050400    8.045660
H     0.167685    -3.558715    5.807439
H     1.306781    -2.670672    4.803794
H     4.599869    -0.402123    8.957825
H     3.175555    -0.315421    7.951878
H     5.498336    -3.204065    3.329320
H     5.079366    -1.876327    4.381012
H     -0.179547    -3.087491    8.075295
H     -0.322703    -1.366746    9.812351
H     0.666258    -0.197769    8.771282
H     6.749939    -0.667962    8.144530
H     8.345758    -0.403563    6.306180
H     6.959981    -0.112848    5.112329
H     3.932284    -4.408418    2.084798
H     1.694331    -4.546488    1.086720
H     1.161737    -3.050276    2.043003
