55
11/21/2023 17:08, XYZ structure generated by mol3D Class, molSimplify
Mn     -0.016209    -0.010221    -0.010740
N     0.150473    2.012995    -0.123978
N     2.008107    0.151358    0.091435
C     -0.828909    2.932648    -0.286889
C     -0.534159    4.283979    -0.397913
C     0.817385    4.652044    -0.341240
N     1.788412    3.742860    -0.192051
N     3.742557    1.784866    0.145912
C     4.649776    0.812000    0.294989
C     4.278303    -0.538308    0.358464
C     2.925716    -0.829833    0.254297
C     1.431337    2.475489    -0.091843
C     2.473809    1.430793    0.052484
H     2.551235    -1.846217    0.286332
H     5.012403    -1.327856    0.480414
H     5.689658    1.122473    0.364603
H     -1.846486    2.560946    -0.313341
H     -1.322202    5.019684    -0.519925
H     1.130387    5.690772    -0.416551
N     -0.119867    -2.035198    0.162198
N     0.080933    -0.165159    2.013320
C     -0.275712    -2.959662    -0.813672
C     -0.381603    -4.310306    -0.513753
C     -0.327234    -4.672533    0.839432
N     -0.185172    -3.758656    1.807072
N     0.137053    -1.791472    3.754291
C     0.278417    -0.814330    4.658151
C     0.336986    0.534798    4.281571
C     0.236227    0.820457    2.927513
C     -0.089662    -2.492325    1.444945
C     0.046311    -1.442924    2.483812
H     0.264973    1.835372    2.548816
H     0.452765    1.327790    5.012953
H     0.345813    -1.120366    5.699493
H     -0.300872    -2.592731    -1.833013
H     -0.497991    -5.049756    -1.299135
H     -0.398650    -5.710293    1.156526
N     -2.040532    -0.110251    -0.177540
N     -0.176062    0.076432    -2.035885
C     -2.961945    -0.258692    0.802362
C     -4.313913    -0.362040    0.507687
C     -4.680597    -0.313241    -0.844532
N     -3.769707    -0.178683    -1.816079
N     -1.808264    0.128267    -3.771526
C     -0.833922    0.262779    -4.679424
C     0.516635    0.319980    -4.307852
C     0.806592    0.224960    -2.954263
C     -2.501848    -0.085019    -1.458866
C     -1.455499    0.042857    -2.501840
H     1.822962    0.253071    -2.579453
H     1.307385    0.430371    -5.042488
H     -1.143416    0.325721    -5.720021
H     -2.591093    -0.279997    1.820374
H     -5.050994    -0.472428    1.296159
H     -5.719659    -0.383145    -1.157673
