43
11/21/2023 17:08, XYZ structure generated by mol3D Class, molSimplify
Mn     -0.000051    -0.000227    0.000022
N     1.667395    0.049122    1.589237
N     2.104772    1.311878    1.891852
N     3.031098    1.266509    2.778374
N     3.211832    -0.036807    3.069332
C     2.376458    -0.783830    2.339176
H     3.910874    -0.312585    3.757655
H     2.308074    -1.861303    2.358108
N     -1.114996    -1.216229    1.206620
N     -1.109943    -0.936487    2.548734
N     -1.825014    -1.794431    3.168291
N     -2.305767    -2.649115    2.235306
C     -1.872116    -2.296294    1.026757
H     -2.910629    -3.421536    2.515471
H     -2.103941    -2.776197    0.086423
N     0.845962    -1.666215    -0.881110
N     1.378782    -2.612472    -0.043765
N     1.851850    -3.579494    -0.730704
N     1.631187    -3.277117    -2.031831
C     1.011286    -2.102809    -2.127969
H     1.934466    -3.920315    -2.763272
H     0.719466    -1.607894    -3.041740
N     -1.667352    -0.049593    -1.589257
N     -2.104783    -1.312294    -1.891983
N     -3.031021    -1.266786    -2.778596
N     -3.211622    0.036548    -3.069558
C     -2.376272    0.783444    -2.339243
H     -3.910556    0.312418    -3.757956
H     -2.307790    1.860912    -2.358112
N     1.114898    1.215828    -1.206682
N     1.109954    0.935963    -2.548767
N     1.825002    1.793914    -3.168347
N     2.305720    2.648619    -2.235367
C     1.871974    2.295915    -1.026815
H     2.910601    3.421019    -2.515546
H     2.103733    2.775877    -0.086496
N     -0.845944    1.665845    0.881070
N     -1.378347    2.612305    0.043673
N     -1.851443    3.579328    0.730586
N     -1.631252    3.276708    2.031733
C     -1.011579    2.102288    2.127943
H     -1.934637    3.919871    2.763162
H     -0.720100    1.607217    3.041743
