49
11/21/2023 17:08, XYZ structure generated by mol3D Class, molSimplify
Mn     0.017060    -0.005025    0.000653
N     0.312628    2.379731    0.065002
C     -0.276901    4.624427    -0.018567
S     1.432327    4.692523    0.224328
C     1.484378    2.978208    0.232661
C     -0.694403    3.327203    -0.076159
H     2.418847    2.448363    0.363868
H     -1.720566    3.012944    -0.208252
H     -0.870862    5.526019    -0.099535
N     2.063327    -0.313823    0.310950
C     4.326216    -0.268256    -0.173503
S     4.285789    -0.981814    1.401163
C     2.585727    -0.849179    1.412859
C     3.066264    0.020364    -0.598490
H     1.998670    -1.181563    2.256916
H     2.816366    0.475827    -1.544658
H     5.261538    -0.104983    -0.694441
N     -0.347028    -2.368254    -0.089843
C     0.167344    -4.631611    -0.177556
S     -1.553005    -4.628463    -0.341847
C     -1.544245    -2.916701    -0.239959
C     0.631643    -3.354707    -0.055375
H     -2.464567    -2.350229    -0.287523
H     1.673102    -3.083896    0.054771
H     0.732049    -5.555403    -0.179520
N     -2.052523    0.298645    -0.298892
C     -4.296628    0.475277    0.249844
S     -4.303189    0.712772    -1.462425
C     -2.609007    0.520844    -1.489155
C     -3.028290    0.271210    0.697790
H     -2.054017    0.585516    -2.412585
H     -2.757471    0.093996    1.726032
H     -5.212716    0.499957    0.826818
N     -0.303700    -0.009248    2.030254
C     -0.735857    -0.892369    4.119485
S     -0.570879    0.801277    4.441138
C     -0.278764    1.085920    2.785655
C     -0.565009    -1.146572    2.793129
H     -0.090528    2.071682    2.388111
H     -0.617551    -2.113583    2.317303
H     -0.948531    -1.598136    4.913149
N     0.346352    -0.001313    -2.030753
C     0.738402    0.906529    -4.118406
S     0.838787    -0.796799    -4.411543
C     0.516909    -1.098918    -2.764955
C     0.474346    1.151244    -2.805558
H     0.465258    -2.100508    -2.364407
H     0.352682    2.121518    -2.349272
H     0.875682    1.624766    -4.917452
