61
11/21/2023 17:08, XYZ structure generated by mol3D Class, molSimplify
Mn     0.005813    0.009097    -0.013651
N     0.229634    2.400626    0.045085
C     0.008359    4.787383    -0.181099
O     1.382202    4.338841    0.094403
C     1.351984    3.032588    0.184567
C     -0.798216    3.464731    -0.190840
H     -1.309868    3.294132    -1.142279
H     -1.553547    3.438811    0.601240
H     0.028646    5.312888    -1.136491
H     -0.268086    5.480098    0.614205
H     2.309709    2.560951    0.380829
N     2.055851    -0.262552    0.238500
C     4.416911    -0.597508    -0.024397
O     3.968193    -0.536183    1.377948
C     2.685062    -0.333460    1.377447
C     3.095420    -0.480936    -0.821752
H     2.873625    -1.394868    -1.377907
H     3.106614    0.358983    -1.519037
H     4.940250    -1.545063    -0.151126
H     5.109923    0.232231    -0.169725
H     2.224643    -0.232792    2.351930
N     -0.216781    -2.382447    -0.071689
C     0.004338    -4.768911    0.156892
O     -1.368246    -4.321159    -0.125818
C     -1.338339    -3.014863    -0.215496
C     0.810776    -3.446161    0.166941
H     1.567215    -3.420699    -0.624106
H     1.321029    -3.274977    1.119000
H     0.284464    -5.463681    -0.635307
H     -0.020202    -5.291943    1.113571
H     -2.295501    -2.543528    -0.415206
N     -2.044047    0.280579    -0.265939
C     -4.405177    0.615278    -0.003004
O     -3.956320    0.554972    -1.405346
C     -2.673213    0.352258    -1.404891
C     -3.083718    0.498476    0.794367
H     -3.094881    -0.341692    1.491343
H     -2.862026    1.412242    1.350830
H     -5.098047    -0.214688    0.141709
H     -4.928685    1.562661    0.124306
H     -2.212741    0.252221    -2.379412
N     -0.283516    -0.001849    1.995037
C     -0.729835    -0.585539    4.268627
O     -0.602364    0.866525    4.029454
C     -0.354009    1.045405    2.768432
C     -0.554424    -1.196686    2.855791
H     -1.449218    -1.714117    2.505431
H     0.281543    -1.897058    2.800223
H     -1.710143    -0.747525    4.717083
H     0.051795    -0.855123    4.979895
H     -0.209683    2.063611    2.429060
N     0.295395    0.020848    -2.022429
C     0.740971    0.605239    -4.295995
O     0.615081    -0.846977    -4.056985
C     0.366705    -1.026216    -2.796013
C     0.566103    1.215948    -2.882915
H     -0.269730    1.916438    -2.826838
H     1.461128    1.733067    -2.532692
H     -0.041541    0.874193    -5.006544
H     1.720728    0.768292    -4.745255
H     0.223175    -2.044609    -2.456839
