17

Co     0.004431    0.002731    -0.065255
C     0.068055    2.276173    0.007957
O     0.099578    3.400956    -0.009303
C     2.279637    0.059344    0.000226
O     3.404420    0.087675    -0.022239
C     -0.053709    -2.273541    0.002872
O     -0.082922    -3.398347    -0.017854
C     -2.270060    -0.061997    0.010427
O     -3.394858    -0.094222    -0.005195
C     0.001367    0.005483    2.257829
O     0.000366    0.006979    3.383077
C     -0.004606    -0.002344    -3.273592
N     0.001002    -0.000625    -2.111248
C     -0.012435    -0.003813    -4.723123
H     1.017624    -0.035231    -5.098811
H     -0.498848    0.909229    -5.088810
H     -0.561680    -0.878358    -5.091434
