25

Co     -0.057936    -0.032381    -0.000662
P     0.254968    2.553655    0.474347
H     1.411854    2.985933    1.157958
H     -0.717806    3.202422    1.265107
H     0.289717    3.454391    -0.611555
P     2.529562    -0.446936    0.383159
H     3.437906    0.281808    -0.415486
H     3.065380    -1.738705    0.194493
H     3.083150    -0.160787    1.649702
P     -0.448971    -2.616445    -0.438245
H     -0.940343    -3.022286    -1.697602
H     -1.378704    -3.291889    0.382145
H     0.634343    -3.513160    -0.323193
P     -2.623543    0.463118    -0.426401
H     -3.405872    -0.514890    -1.077713
H     -2.954930    1.574633    -1.230930
H     -3.470515    0.727615    0.671134
P     -0.438602    -0.406006    2.592259
H     -1.722093    -0.795235    3.032503
H     -0.220447    0.666372    3.483658
H     0.326161    -1.394858    3.247550
P     0.355874    0.272373    -2.599172
H     0.984473    1.453740    -3.048117
H     -0.751810    0.270106    -3.474044
H     1.163486    -0.672350    -3.268161
