25

Co     -0.034369    -0.018031    0.012774
P     -0.342594    2.312974    -0.223779
H     -1.537762    2.890055    0.251047
H     0.601563    3.179526    0.361763
H     -0.337723    2.806610    -1.545123
P     2.736168    0.351832    -0.527570
H     3.366224    1.584622    -0.238333
H     3.665209    -0.482716    0.135736
H     3.256966    0.190089    -1.833560
P     0.359444    -2.327835    0.309638
H     1.611652    -2.740207    0.807576
H     -0.497385    -3.042437    1.170608
H     0.278885    -3.141240    -0.840729
P     -2.747301    -0.420488    0.430921
H     -3.330034    -1.684328    0.180334
H     -3.293891    -0.221801    1.719621
H     -3.687980    0.357874    -0.283586
P     0.311163    0.313176    2.315737
H     1.573300    0.784180    2.728829
H     -0.528652    1.240737    2.963969
H     0.161763    -0.787627    3.183051
N     -0.356501    -0.231644    -2.011683
H     -1.213517    0.219145    -2.340556
H     0.405184    0.160434    -2.570056
H     -0.436464    -1.208172    -2.300648
