30

Co     -0.007513    -0.007885    0.097764
N     0.274677    2.087224    0.371452
C     0.468950    3.213550    0.557074
C     0.711979    4.629526    0.792427
H     0.719317    4.830472    1.868880
H     1.679223    4.917604    0.367733
H     -0.076622    5.226038    0.322040
N     2.079851    -0.367130    0.344299
C     3.216799    -0.510029    0.511209
C     4.646020    -0.688597    0.723501
H     5.202617    0.077491    0.173719
H     4.875555    -0.601686    1.790725
H     4.955217    -1.677706    0.370016
N     -0.305972    -2.099549    -0.237186
C     -0.459723    -3.221319    -0.482303
C     -0.651490    -4.631512    -0.789443
H     0.153377    -4.982774    -1.443501
H     -0.643315    -5.218273    0.135232
H     -1.612291    -4.775328    -1.294614
N     -2.096559    0.336887    -0.207297
C     -3.214186    0.532188    -0.441613
C     -4.618451    0.779134    -0.736042
H     -5.125338    1.157327    0.158029
H     -4.705272    1.520853    -1.536949
H     -5.101850    -0.150360    -1.054376
O     -0.260137    -0.240134    2.178773
H     -1.092079    0.071065    2.574984
H     -0.090640    -1.120519    2.556073
C     0.421476    0.357744    -2.169057
O     0.656352    0.555708    -3.255136
