36

Co     -0.000515    -0.000546    0.077987
C     0.029883    0.029991    2.448157
O     0.031497    0.031950    3.577122
C     -0.031863    2.182070    0.109550
N     -0.021752    3.342424    0.077447
C     0.000939    4.773445    0.023973
H     0.840698    5.090267    -0.599336
H     0.117337    5.166712    1.036612
H     -0.938430    5.127897    -0.406480
C     2.181171    -0.033448    0.107439
N     3.341576    -0.022571    0.075180
C     4.772527    -0.001270    0.021630
H     5.116522    -0.833145    -0.597275
H     5.169018    -0.102869    1.034560
H     5.096712    0.947011    -0.413788
C     0.012369    -2.183549    0.085241
N     0.008642    -3.344228    0.060437
C     -0.005354    -4.775430    0.017296
H     -0.842790    -5.101511    -0.603888
H     -0.118694    -5.162091    1.032942
H     0.936616    -5.127179    -0.409957
C     -2.182587    0.013663    0.084128
N     -3.343059    0.009778    0.059119
C     -4.774266    -0.002975    0.013856
H     -5.094123    -0.613034    -0.834205
H     -5.135705    1.021200    -0.103556
H     -5.156943    -0.426173    0.945706
O     -0.000790    -0.000640    -2.150473
C     0.769139    -0.808546    -2.982388
C     0.495550    -0.522410    -4.274151
C     -0.498078    0.520821    -4.274029
C     -0.771483    0.806912    -2.982220
H     1.425764    -1.501950    -2.482882
H     0.941015    -0.990260    -5.140810
H     -1.429015    1.499413    -2.482589
H     -0.942242    0.990074    -5.140610
