19

Co     -0.307884    -0.323330    -0.442031
C     -0.183473    2.348031    -1.721190
O     0.072911    1.903147    -0.612314
H     -0.077423    3.430428    -1.915412
H     -0.512010    1.661612    -2.514010
C     2.412448    -0.655086    0.818117
O     1.897891    -0.731333    -0.284786
H     3.499971    -0.807816    0.931959
H     1.793474    -0.439429    1.700076
C     -0.660186    -3.027427    0.868940
O     -0.673830    -2.551843    -0.253190
H     -0.851084    -4.105158    1.017134
H     -0.460424    -2.375638    1.730788
C     -2.892458    0.469761    0.943988
O     -2.488659    0.323662    -0.196836
H     -2.233297    0.246815    1.794343
H     -3.920695    0.830425    1.126192
F     -0.288194    -0.376819    1.494117
F     -0.497345    -0.299109    -2.264629
