25

Co     0.005558    -0.163062    -0.017742
C     0.087348    2.958676    -0.411852
O     -0.533035    1.902210    -0.355401
H     -0.435031    3.892893    -0.659998
H     1.168516    2.997474    -0.214283
C     3.113611    -0.231888    0.441527
O     2.082849    0.392565    0.210277
H     4.076335    0.294685    0.495791
H     3.100150    -1.320001    0.598732
C     -0.098469    -3.271415    0.375705
O     0.531552    -2.220635    0.307043
H     -1.180727    -3.302259    0.185531
H     0.418120    -4.207416    0.627903
C     -3.103958    -0.113156    -0.481600
O     -2.069262    -0.725707    -0.238662
H     -4.061969    -0.648106    -0.536566
H     -3.098098    0.973854    -0.649289
N     -0.327296    0.173225    2.092307
H     -0.223912    -0.669244    2.662463
H     -1.269771    0.519886    2.282727
H     0.309684    0.862819    2.496843
N     0.353246    -0.399689    -2.131983
H     1.234093    0.024364    -2.431522
H     -0.372093    0.027595    -2.712520
H     0.401443    -1.378753    -2.421556
