19

Co     0.044894    -0.029424    -0.029460
O     0.421043    1.919823    0.367873
H     1.310142    2.238357    0.124874
H     -0.202341    2.653719    0.223001
O     2.060962    -0.196841    -0.289294
H     2.429117    -0.386522    -1.172154
H     2.661610    -0.588373    0.369918
O     -0.301154    -1.976167    -0.398959
H     0.321902    -2.720291    -0.328221
H     -1.202518    -2.312641    -0.245332
O     -1.950362    0.104128    0.290203
H     -2.176236    0.198548    1.234525
H     -2.587201    0.627862    -0.227460
O     0.100553    -0.282186    2.148651
H     0.436754    0.457263    2.684752
H     0.197256    -1.085352    2.689450
S     -0.011947    0.320044    -2.704639
H     -1.019980    -0.436392    -3.183830
H     -0.535890    1.495164    -3.110041
