27

Co     0.006470    0.002002    0.008907
C     0.578950    3.264794    0.487565
N     0.401587    2.136427    0.316805
C     0.802626    4.689922    0.702585
H     0.343545    5.268173    -0.105115
H     1.876065    4.901618    0.722756
H     0.365441    4.998768    1.657069
C     3.284637    -0.455324    -0.483532
N     2.153766    -0.275302    -0.333397
C     4.713445    -0.683281    -0.667571
H     5.248955    0.270974    -0.658249
H     4.894915    -1.179551    -1.625799
H     5.099343    -1.312449    0.140367
C     -0.580069    -3.256011    -0.488310
N     -0.390128    -2.131861    -0.303797
C     -0.823196    -4.674836    -0.723049
H     0.097370    -5.161982    -1.058837
H     -1.589365    -4.801264    -1.494083
H     -1.161200    -5.156180    0.199744
C     -3.273477    0.449692    0.500779
N     -2.141196    0.278401    0.351044
C     -4.704607    0.663886    0.683338
H     -5.125405    -0.126437    1.312452
H     -5.211110    0.656258    -0.286668
H     -4.880464    1.629300    1.167581
Cl     0.359543    -0.386360    2.349153
Cl     -0.348596    0.389794    -2.331896
