21

Co     -0.121045    -0.085051    0.018988
O     0.361495    1.927731    -0.457454
H     0.028132    2.279325    -1.302920
H     0.362317    2.669339    0.173332
O     1.991543    -0.315805    -0.122990
H     2.431466    0.439559    -0.552588
H     2.486463    -1.113326    -0.380204
O     -0.444075    -2.161867    0.217652
H     0.030772    -2.769962    0.811551
H     -1.390208    -2.381259    0.303975
O     -2.207227    0.059722    0.335884
H     -2.500744    0.280574    1.238612
H     -2.840095    0.473734    -0.277019
C     0.918413    0.271254    2.930233
O     0.014249    0.278194    2.098683
H     1.946492    -0.000763    2.652028
H     0.704707    0.539026    3.973500
C     -0.553941    -1.064169    -2.910684
O     -0.500866    -0.173400    -2.067057
H     -0.409755    -2.119759    -2.638815
H     -0.749629    -0.813173    -3.961690
