23

Co     0.010567    -0.009270    0.020300
N     -0.500197    1.943214    -0.034449
H     -1.272605    2.195841    0.587621
H     0.254045    2.591769    0.204705
H     -0.793953    2.202157    -0.981686
N     1.968204    0.502592    0.071537
H     2.214396    1.271042    -0.557878
H     2.246320    0.801362    1.012930
H     2.613108    -0.253171    -0.173099
N     0.526018    -1.966027    -0.022341
H     1.298343    -2.210053    0.603508
H     -0.227586    -2.610800    0.228720
H     0.821517    -2.248124    -0.963697
N     -1.941379    -0.521907    0.071285
H     -2.193282    -1.304508    -0.538496
H     -2.203679    -0.801432    1.022019
H     -2.588855    0.228382    -0.182332
S     0.236269    0.075302    3.017579
H     0.039740    -1.019629    3.779990
H     -0.539952    0.877507    3.774377
S     0.113855    -0.238512    -2.971083
H     -0.984467    -0.054687    -3.731760
H     0.904246    0.551668    -3.725919
