25

Co     -0.030546    -0.009297    -0.006796
O     -0.408760    2.055467    0.332323
H     -0.502804    2.206145    1.301492
O     0.820671    2.764149    0.033845
H     0.485624    3.587057    -0.382365
O     2.034151    0.330676    0.370417
H     2.183975    1.300164    0.462938
O     2.742877    0.030382    -0.858322
H     3.566456    -0.383922    -0.522566
O     0.345632    -2.073612    -0.347072
H     0.437176    -2.224141    -1.316503
O     -0.882183    -2.783011    -0.044615
H     -0.545216    -3.606080    0.369728
O     -2.095229    -0.349514    -0.382470
H     -2.245702    -1.318904    -0.474660
O     -2.803706    -0.048052    0.846194
H     -3.627952    0.364740    0.510176
O     -0.369689    -0.386610    2.057912
H     -1.338958    -0.479153    2.208911
O     -0.068917    0.842682    2.765917
H     0.345917    0.507238    3.589363
O     0.309933    0.366872    -2.071359
H     1.279515    0.458006    -2.221269
O     0.007864    -0.861337    -2.780387
H     -0.407256    -0.524720    -3.603201
