25

Co     -0.000180    0.002044    0.000394
O     0.129410    2.092858    0.219732
C     0.855272    2.796542    0.916358
H     0.726681    3.887232    0.912010
H     1.642349    2.362586    1.547881
O     2.077115    -0.148521    0.316854
C     2.873425    -1.079399    0.383974
H     3.942706    -0.874793    0.528036
H     2.543179    -2.124753    0.303905
O     -0.129908    -2.089016    -0.218485
C     -0.855640    -2.792496    -0.915506
H     -1.642343    -2.358262    -1.547289
H     -0.727148    -3.883185    -0.911286
O     -2.077285    0.152620    -0.316763
C     -2.873480    1.083621    -0.383418
H     -2.543194    2.128866    -0.302079
H     -3.942694    0.879245    -0.528293
O     -0.256449    -0.096926    2.114464
C     -0.620946    -0.946277    2.919326
H     -0.650137    -0.709630    3.991648
H     -0.924007    -1.954842    2.601344
O     0.255677    0.100680    -2.113600
C     0.622227    0.948881    -2.918762
H     0.928361    1.956593    -2.601059
H     0.650115    0.711930    -3.991042
