25

Co     -0.078263    0.107576    0.068292
O     0.162176    2.169802    0.414706
H     -0.551109    2.754570    0.099043
S     1.648357    3.059027    0.470590
H     1.533374    3.455914    1.759811
O     1.986786    -0.418768    -0.273663
H     2.324362    -0.124147    -1.146986
S     3.240284    -0.249498    0.918575
H     3.696967    -1.520935    0.813158
O     -0.390125    -1.985838    -0.104830
H     0.460173    -2.461751    -0.159243
S     -1.520799    -2.773919    -1.166255
H     -2.083752    -3.553033    -0.213925
O     -2.141933    0.522327    0.408205
H     -2.451192    0.159551    1.266353
S     -3.396061    0.343194    -0.779026
H     -3.892105    1.596258    -0.639288
O     0.267897    -0.164425    2.133951
H     1.175657    -0.428427    2.398874
S     -0.917319    -0.888049    3.161583
H     -0.958138    0.117525    4.067950
O     -0.406677    0.468465    -1.987073
H     -1.322505    0.385825    -2.330544
S     0.761471    0.236554    -3.240566
H     0.889868    1.543048    -3.574062
