12

Co     0.034647    0.031454    0.057448
C     0.399535    2.214525    0.403854
O     0.614097    3.322708    0.397828
C     2.232453    -0.294137    0.352591
O     3.352608    -0.430114    0.327074
C     -0.321930    -2.144357    -0.346042
O     -0.475826    -3.196758    -0.723763
C     -2.153156    0.360505    -0.294825
O     -3.208096    0.542349    -0.652695
C     -0.340055    -0.302575    2.303773
O     -0.530166    -0.468711    3.403019
Cl     0.395891    0.365113    -2.147691
