19

Co     -0.307362    -0.251348    -0.014996
C     -0.695606    2.030977    -1.597930
O     -0.580718    1.804783    -0.400326
H     -0.662888    1.191585    -2.307740
H     -0.832470    3.068099    -1.947330
C     2.352628    0.250129    1.203986
O     1.903217    -0.015996    0.101047
H     3.441806    0.373776    1.339064
H     1.666726    0.359607    2.054137
C     0.013996    -3.098938    -0.520768
O     0.005267    -2.300457    0.403512
H     -0.160933    -2.759019    -1.549504
H     0.199963    -4.166518    -0.315492
C     -2.998429    -0.060153    1.302960
O     -2.583862    -0.315105    0.184684
H     -2.286736    0.125405    2.118912
H     -4.086490    -0.011454    1.492667
F     -0.297026    0.078068    1.796521
F     -0.471297    -0.719201    -1.784675
