29

Co     0.000424    0.000812    0.151431
C     -0.448808    2.239491    -0.008310
O     -0.621621    3.351451    -0.064982
C     2.239956    0.458328    0.002899
O     3.329359    0.740934    -0.055303
C     0.448948    -2.239454    -0.007965
O     0.622273    -3.351318    -0.065063
C     -2.240293    -0.458300    0.003501
O     -3.329851    -0.740393    -0.054465
O     -0.000262    -0.000125    -2.020482
C     0.962913    -0.577949    -2.866627
C     0.618890    -0.370674    -4.153669
C     -0.618559    0.370652    -4.153665
C     -0.962903    0.578147    -2.866783
H     1.789331    -1.072193    -2.381009
H     1.174086    -0.701362    -5.021317
H     -1.789982    1.071736    -2.381690
H     -1.172997    0.701494    -5.021534
C     -0.000508    -0.001368    4.996167
C     1.019702    -0.641473    4.286090
C     0.985739    -0.620041    2.900035
N     0.000861    0.001073    2.202537
C     -0.984207    0.621657    2.900343
C     -1.019842    0.640557    4.286466
H     -0.001111    -0.002130    6.082066
H     1.829904    -1.150930    4.796731
H     1.762536    -1.111804    2.322153
H     -1.760499    1.114691    2.322777
H     -1.830933    1.149001    4.797156
