25

Co     0.068223    0.070500    0.004164
N     0.263061    2.021158    -0.234270
H     -0.461851    2.716865    -0.421512
C     1.460407    2.475279    -0.130777
H     1.720773    3.528528    -0.231657
C     2.483611    1.444140    0.142131
H     3.538867    1.696414    0.242713
N     2.020507    0.250140    0.244728
H     2.711122    -0.480225    0.429587
N     0.053025    -1.863826    0.443226
H     0.180192    -2.600229    -0.253411
C     -0.141421    -2.269851    1.642690
H     -0.161094    -3.326527    1.910998
C     -0.340210    -1.226075    2.685537
H     -0.478359    -1.530273    3.724549
N     -0.329801    -0.016463    2.273920
H     -0.459709    0.671168    3.020873
N     -1.865012    0.075127    -0.440600
H     -2.601994    0.209371    0.254104
C     -2.269837    -0.115450    -1.641076
H     -3.326008    -0.124688    -1.911842
C     -1.225357    -0.324058    -2.681486
H     -1.528543    -0.460704    -3.721019
N     -0.016681    -0.323484    -2.267200
H     0.671737    -0.459204    -3.012385
