12

Co     0.002586    0.005529    0.166571
C     0.019368    1.923093    0.266551
O     0.037286    3.052577    0.277112
C     2.349368    -0.014455    0.436890
O     3.475643    0.005114    0.360220
C     0.066384    -1.850646    -0.321385
O     0.119668    -2.930108    -0.649875
C     -2.301167    0.065953    -0.321283
O     -3.337421    0.148949    -0.761768
C     -0.303904    -0.291209    2.026699
O     -0.488311    -0.469148    3.127000
Cl     0.360495    0.354357    -2.031914
