53

Co     -0.048004    -0.087493    -0.117073
C     -0.382757    -0.305658    2.225886
O     -0.557798    -0.438620    3.335327
C     0.305286    0.122001    -2.272279
N     0.516538    0.218063    -3.411860
C     0.779466    0.333340    -4.814083
H     0.308290    -0.502669    -5.336517
H     1.859317    0.309972    -4.979584
H     0.369708    1.277989    -5.179328
C     -0.082175    4.928532    0.383569
C     0.580028    4.131218    1.317782
C     0.580841    2.751381    1.139894
N     -0.037622    2.142528    0.107347
C     -0.679416    2.921167    -0.787344
C     -0.722379    4.308072    -0.690248
H     -0.098778    6.009047    0.488067
H     1.090131    4.564125    2.171809
H     1.104433    2.106828    1.839612
H     -1.177892    2.405514    -1.601843
H     -1.251244    4.885039    -1.441669
C     4.890807    -0.010902    0.699933
C     4.083431    -0.923804    1.380162
C     2.715185    -0.923132    1.129959
N     2.128005    -0.073510    0.261356
C     2.916607    0.808781    -0.387334
C     4.292836    0.871531    -0.200806
H     5.962775    0.013927    0.870012
H     4.502463    -1.625926    2.093287
H     2.061360    -1.628528    1.633449
H     2.415537    1.486122    -1.070234
H     4.879630    1.601450    -0.748526
C     -0.090193    -5.063937    -0.267037
C     -1.032690    -4.378549    0.501047
C     -1.004361    -2.988678    0.511067
N     -0.097707    -2.267900    -0.182788
C     0.808045    -2.938898    -0.924744
C     0.845241    -4.327089    -0.995399
H     -0.086095    -6.149070    -0.298321
H     -1.780593    -4.906697    1.083060
H     -1.736224    -2.425868    1.081831
H     1.525531    -2.332816    -1.468333
H     1.595682    -4.815991    -1.607569
C     -5.028394    0.113260    -0.533737
C     -4.383504    0.876522    0.440116
C     -2.997244    0.812279    0.533246
N     -2.243775    0.038957    -0.275296
C     -2.875349    -0.695364    -1.214348
C     -4.256493    -0.686623    -1.377344
H     -6.108992    0.142029    -0.634620
H     -4.941778    1.514741    1.116608
H     -2.461680    1.404522    1.268074
H     -2.244803    -1.309373    -1.849733
H     -4.712625    -1.295358    -2.150871
