25

Co     0.004110    0.003228    0.000270
O     0.152006    1.978357    -0.208980
C     0.927664    2.615078    -0.920347
H     0.843486    3.708360    -0.957961
H     1.704136    2.118003    -1.513962
O     1.964636    -0.150968    -0.315844
C     2.720998    -1.118175    -0.268667
H     2.357984    -2.122717    -0.017242
H     3.787049    -0.974405    -0.484279
O     -0.143281    -1.971977    0.210056
C     -0.921376    -2.609152    0.918338
H     -0.836053    -3.702312    0.956869
H     -1.700939    -2.112626    1.508347
O     -1.956509    0.157227    0.316124
C     -2.712786    1.124586    0.270868
H     -2.349587    2.129635    0.021724
H     -3.778912    0.980493    0.485900
O     0.263899    0.115519    2.168547
C     0.608111    0.954355    2.990500
H     0.887884    1.976644    2.692623
H     0.644299    0.701930    4.059745
O     -0.256297    -0.108705    -2.168049
C     -0.599471    -0.947501    -2.990471
H     -0.877596    -1.970388    -2.693108
H     -0.636270    -0.694511    -4.059563
