33

Co     0.003975    -0.012617    -0.035611
N     0.877537    1.712652    0.218704
C     1.375232    2.722858    0.478403
C     2.002041    3.993977    0.812517
H     2.860428    4.173479    0.157175
H     1.281662    4.809135    0.689232
H     2.343028    3.972808    1.852989
N     1.739254    -0.899287    0.021319
C     2.768112    -1.424393    0.058287
C     4.065601    -2.084151    0.106603
H     3.996697    -3.078666    -0.346164
H     4.803972    -1.492212    -0.444028
H     4.392347    -2.185760    1.146845
N     -0.877240    -1.734542    -0.286680
C     -1.408505    -2.730208    -0.536145
C     -2.081226    -3.980726    -0.858477
H     -3.107194    -3.961734    -0.476378
H     -2.108137    -4.113963    -1.945076
H     -1.544751    -4.822676    -0.409126
N     -1.728203    0.875178    -0.093699
C     -2.752656    1.408174    -0.134311
C     -4.043853    2.079357    -0.187410
H     -4.744707    1.594695    0.500041
H     -3.930516    3.128632    0.103632
H     -4.446572    2.029594    -1.204470
C     -0.514261    -0.915328    3.069990
O     -0.102476    -0.107129    2.256536
H     -0.445299    -0.713619    4.149855
H     -0.968520    -1.871573    2.760511
C     0.693547    0.793978    -3.122458
O     0.091738    0.095263    -2.326428
H     0.566269    0.651562    -4.206386
H     1.383088    1.589870    -2.793834
