16

Co     -0.068269    0.040244    -0.004738
C     -0.427943    2.259867    -0.386656
O     -0.580119    3.356350    -0.590602
C     2.169139    0.385681    0.293530
O     3.272182    0.579250    0.407106
C     0.294203    -2.179304    0.374254
O     0.460053    -3.280585    0.537097
C     -2.296782    -0.306452    -0.332361
O     -3.386977    -0.503497    -0.531461
O     -0.359639    0.367599    2.022019
H     -1.126389    0.810453    2.432342
H     0.201576    0.049899    2.754760
C     0.467815    -0.397249    -3.188241
O     0.240338    -0.272089    -1.986368
H     0.042723    -1.241269    -3.748939
H     1.098115    0.331092    -3.717493
