25

Co     0.100198    -0.286624    0.180818
S     0.612675    1.986984    0.607799
H     -0.177035    2.679733    -0.246883
C     2.184004    2.251430    -0.216623
H     2.442632    3.295310    -0.375073
C     3.036757    1.264516    -0.504789
H     4.010097    1.493893    -0.932240
S     2.741264    -0.443577    -0.099180
H     3.174152    -0.991857    -1.257297
S     -0.226989    -2.616513    -0.095255
H     -1.501188    -2.766423    -0.531287
C     -0.466566    -3.193346    1.587935
H     -0.755859    -4.237245    1.685138
C     -0.198790    -2.432651    2.644782
H     -0.251077    -2.814451    3.661689
S     0.419855    -0.753743    2.485028
H     -0.604168    -0.110464    3.094417
S     -2.577992    0.171149    0.175714
H     -3.122746    1.074896    1.020755
C     -2.642495    1.148588    -1.308011
H     -3.541531    1.741196    -1.458366
C     -1.702692    1.099212    -2.256462
H     -1.816061    1.620030    -3.203640
S     -0.266051    0.033687    -2.147774
H     0.676916    0.934937    -2.510157
