31

Co     0.060945    -0.116080    -0.197233
P     0.398685    2.428887    -0.581867
H     -0.387615    3.391446    0.094269
C     1.397946    3.336415    -1.559723
H     2.123263    2.864606    -2.217793
H     1.363827    4.423339    -1.580974
P     2.596029    -0.494974    0.185436
H     3.595171    -0.080233    -0.726887
C     3.448329    -1.220162    1.420181
H     2.937408    -1.642630    2.281584
H     4.533494    -1.292436    1.418480
P     -0.341763    -2.671565    0.166106
H     0.673469    -3.643043    0.000322
C     -1.695999    -3.564753    0.550461
H     -2.654979    -3.086747    0.733486
H     -1.674426    -4.649054    0.632750
P     -2.490464    0.283662    -0.635073
H     -3.084782    -0.027302    -1.881378
C     -3.738738    0.946343    0.248310
H     -3.588795    1.296095    1.266624
H     -4.743281    1.055986    -0.154042
P     -0.409332    0.245653    2.343547
H     -1.343866    -0.538113    3.061434
C     0.199814    1.292924    3.487077
H     0.957234    2.029298    3.229974
H     -0.123165    1.277378    4.525491
P     0.487183    -0.594874    -2.714504
H     1.081782    -1.793279    -3.175649
C     0.081901    0.219435    -4.110890
H     -0.402759    1.191758    -4.073650
H     0.288241    -0.180353    -5.101111
