21

Co     -0.181050    -0.092269    0.037538
S     0.266733    2.478752    0.391892
H     0.942438    2.847003    -0.716614
H     1.338608    2.570652    1.206854
S     2.385321    -0.398488    -0.470051
H     2.612246    -1.687882    -0.805352
H     2.863001    -0.536336    0.784631
S     -0.584783    -2.655737    -0.404959
H     -1.855503    -2.975954    -0.077719
H     -0.051841    -3.236602    0.690731
S     -2.710051    0.326913    0.593443
H     -2.889880    1.611567    0.218565
H     -3.375201    -0.180200    -0.465391
C     -0.244167    -0.347583    3.184023
O     0.274731    -0.414406    2.072451
H     -1.266987    0.030690    3.325315
H     0.320132    -0.670183    4.069178
C     -0.312091    -0.007766    -3.127000
O     -0.554415    0.335333    -1.973468
H     0.313893    -0.883767    -3.350480
H     -0.726946    0.564902    -3.967064
