25

Co     -0.097393    -0.126684    0.110673
O     -0.231930    1.958380    -0.284127
H     -0.326337    2.079640    -1.255733
S     -1.358006    3.006318    0.513188
H     -0.518161    4.062995    0.615696
O     1.966482    0.101078    0.474859
H     2.104019    0.338291    1.419284
S     3.002337    1.111746    -0.481008
H     4.016611    0.219986    -0.566581
O     0.067525    -2.239685    0.442231
H     0.244448    -2.484146    1.371184
S     1.035495    -3.237674    -0.588278
H     0.068887    -4.146431    -0.860380
O     -2.188466    -0.322115    -0.205140
H     -2.434352    -0.746574    -1.049245
S     -3.269885    -0.863379    1.033856
H     -4.109418    0.196895    0.964805
O     -0.419637    0.040450    2.089061
H     -1.369602    -0.013062    2.346341
S     0.536722    0.825684    3.294278
H     0.200853    2.097128    2.957575
O     0.140922    -0.488700    -1.852936
H     0.526041    -1.371245    -2.066652
S     0.277833    0.628567    -3.163722
H     1.583312    0.940789    -2.961183
