34

Co     -0.000504    0.000896    -0.186473
O     0.001562    -0.000817    2.302699
H     0.763195    0.101837    2.896499
H     -0.765061    -0.077305    2.894014
C     -0.002682    1.929622    -0.061564
N     -0.002131    3.086278    0.022039
C     0.001807    4.513500    0.127150
H     0.831526    4.912048    -0.461441
H     0.121773    4.792652    1.176669
H     -0.944598    4.902889    -0.255426
C     1.930641    0.001153    -0.080862
N     3.088833    0.000059    -0.015597
C     4.518575    -0.004893    0.057718
H     4.903276    -0.832767    -0.542460
H     4.821455    -0.130548    1.099977
H     4.899580    0.943565    -0.328094
C     0.002220    -1.927732    -0.061112
N     0.002281    -3.084267    0.022082
C     -0.000597    -4.511475    0.127381
H     -0.830568    -4.910666    -0.460392
H     -0.119432    -4.790359    1.177084
H     0.945750    -4.900201    -0.255972
C     -1.931642    -0.000403    -0.079693
N     -3.089896    -0.001038    -0.014101
C     -4.519920    0.000664    0.053680
H     -4.915403    -0.611170    -0.760500
H     -4.880260    1.027420    -0.043190
H     -4.833044    -0.414247    1.014769
C     -0.001167    0.000326    -2.351800
N     -0.001648    -0.000267    -3.514862
C     0.000860    -0.002986    -4.945863
H     -0.613831    -0.832138    -5.304099
H     1.026804    -0.123048    -5.301705
H     -0.407756    0.943417    -5.307879
