27

Co     0.104579    -0.108553    0.045056
N     -0.147168    2.093168    0.334783
H     -1.129536    2.357511    0.433251
H     0.323562    2.500709    1.145641
H     0.189803    2.616816    -0.475804
N     2.281111    0.225470    -0.293457
H     2.630835    1.117582    0.062211
H     2.912279    -0.482570    0.089067
H     2.461115    0.242794    -1.299206
N     0.303102    -2.275668    -0.426090
H     1.268076    -2.551071    -0.621085
H     -0.033103    -2.947877    0.267136
H     -0.210362    -2.480761    -1.285832
N     -2.098658    -0.405470    0.291626
H     -2.345484    -1.394980    0.355254
H     -2.540456    0.033296    1.102508
H     -2.606686    -0.053932    -0.523275
N     0.398909    -0.372798    2.237488
H     -0.359588    0.019524    2.799282
H     0.460272    -1.354176    2.517191
H     1.253048    0.060855    2.594998
C     -0.377798    0.380975    -3.288397
N     -0.205488    0.204461    -2.154187
C     -0.592683    0.601344    -4.712779
H     0.364861    0.570540    -5.243497
H     -1.057830    1.579779    -4.873255
H     -1.249230    -0.176619    -5.116635
