25

Co     0.009127    -0.049479    -0.102460
S     -0.215467    2.527461    -0.702611
H     -0.698766    3.121847    0.414056
N     1.425505    3.016946    -0.528359
H     1.831833    3.242910    -1.440243
N     2.176568    2.231685    0.330907
H     3.095099    2.684130    0.403136
S     2.508893    0.513890    -0.363045
H     2.959635    0.022850    0.812240
S     0.405324    -2.447873    0.742713
H     -0.760291    -3.133920    0.743364
N     0.539735    -2.218364    2.475502
H     1.519461    -2.276898    2.745806
N     -0.104942    -1.177474    3.108147
H     -1.051976    -1.434979    3.380666
S     -0.136018    0.420496    2.397060
H     1.067148    0.865926    2.823355
S     -2.560652    -0.559529    -0.243888
H     -3.283336    0.583113    -0.297405
N     -2.763690    -1.049931    -1.917306
H     -2.829517    -2.065138    -1.956411
N     -1.941447    -0.558073    -2.905240
H     -2.296444    0.316370    -3.288108
S     -0.214616    -0.407968    -2.660131
H     0.138463    -1.678424    -2.965248
