25

Co     0.107959    0.103735    0.003712
O     0.305152    2.217035    -0.193645
H     -0.152986    2.525546    -1.002192
N     1.738125    2.363556    -0.563729
H     1.927211    3.364767    -0.403910
N     2.392955    1.735383    0.518809
H     3.390825    1.905029    0.321474
O     2.218854    0.293377    0.200923
H     2.521431    -0.138865    1.025896
O     -0.078301    -1.992403    0.466555
H     -0.602499    -2.337029    -0.295331
N     -1.115537    -1.867940    1.596758
H     -1.279441    -2.840112    1.891447
N     -0.468275    -1.266314    2.639059
H     0.420379    -1.721496    2.878075
O     -0.072641    0.037155    2.181238
H     -0.537692    0.676725    2.758288
O     -1.985714    -0.087195    -0.470099
H     -2.333169    -0.613394    0.289013
N     -1.853260    -1.124172    -1.601667
H     -2.824060    -1.289889    -1.900017
N     -1.249710    -0.473945    -2.640625
H     -1.707974    0.412406    -2.882228
O     0.049492    -0.073254    -2.176878
H     0.693781    -0.533131    -2.752784
