40

Co     0.000193    0.000316    0.238104
C     0.003391    1.930574    0.125146
N     0.004389    3.088796    0.067120
C     0.011575    4.518770    0.002210
H     0.846026    4.843881    -0.623510
H     0.125085    4.918980    1.012542
H     -0.931502    4.862331    -0.429359
C     1.930715    0.003962    0.123238
N     3.088881    0.005079    0.064477
C     4.518898    0.009367    -0.000234
H     4.851432    -0.824882    -0.622436
H     4.919836    -0.098228    1.010467
H     4.854493    0.953212    -0.436120
C     -0.003233    -1.930074    0.125617
N     -0.004400    -3.088290    0.067554
C     -0.011847    -4.518277    0.002437
H     -0.846290    -4.843111    -0.623456
H     -0.125642    -4.918601    1.012698
H     0.931279    -4.861928    -0.428976
C     -1.930455    -0.003256    0.125187
N     -3.088556    -0.004380    0.066509
C     -4.518505    -0.009634    -0.001660
H     -4.833295    -0.616923    -0.853594
H     -4.873907    1.016091    -0.125026
H     -4.916637    -0.431591    0.924211
C     0.001461    0.000850    2.398875
N     0.001334    0.000745    3.561880
C     0.000010    -0.000530    4.993083
H     0.606964    -0.835672    5.351230
H     -1.026966    -0.109631    5.350136
H     0.418849    0.942392    5.353088
O     -0.000661    -0.000126    -2.338434
C     0.762362    -0.800789    -3.166927
C     0.495287    -0.520557    -4.465493
C     -0.495919    0.520576    -4.465575
C     -0.763492    0.800631    -3.167065
H     1.421080    -1.495697    -2.670606
H     0.942249    -0.990391    -5.330446
H     -1.422634    1.495256    -2.670897
H     -0.942562    0.990565    -5.330607
