21

Co     -0.206040    -0.101870    0.056612
S     0.166075    2.306893    -0.034293
H     -0.564141    2.830892    0.974022
H     1.354982    2.527050    0.568350
S     2.198392    -0.413951    -0.226314
H     2.248571    -0.960539    -1.460439
H     2.460282    -1.576621    0.410274
S     -0.506129    -2.490321    -0.188261
H     -1.411047    -2.863786    0.742546
H     -1.363949    -2.563657    -1.227779
S     -2.550574    0.397473    0.408390
H     -2.788966    -0.348606    1.507583
H     -3.252908    -0.389566    -0.434328
C     0.479673    -0.100991    3.346706
O     -0.179464    -0.232916    2.322750
H     0.022290    -0.270996    4.332197
H     1.542132    0.189718    3.320288
C     -0.503772    0.606132    -3.210212
O     -0.313656    -0.094773    -2.222387
H     -0.472124    0.167742    -4.218286
H     -0.706217    1.685280    -3.123547
