13
03/24/2023 16:57, XYZ structure generated by mol3D Class, molSimplify
Co     0.001098    0.001032    0.001099
C     -0.026032    2.266380    -0.026043
O     -0.028755    3.387609    -0.028772
C     2.266773    -0.025090    -0.026915
O     3.388002    -0.027343    -0.029203
C     0.025631    -2.264943    0.025640
O     0.027468    -3.386180    0.027482
C     -2.265223    0.024558    0.026127
O     -3.386461    0.025931    0.027490
C     -0.026910    -0.025137    2.266781
O     -0.029193    -0.027409    3.388010
C     0.026120    0.024600    -2.265230
O     0.027480    0.025991    -3.386468
