34

Co     -0.063671    0.084110    0.035470
C     0.424209    3.093424    0.480039
N     0.237569    1.967892    0.278679
C     0.656958    4.506684    0.722518
H     0.522278    5.071320    -0.208248
H     1.680060    4.656468    1.087992
H     -0.052714    4.876099    1.472621
C     2.947118    -0.358383    -0.447105
N     1.811664    -0.183177    -0.297465
C     4.369738    -0.576058    -0.644547
H     4.899904    0.383557    -0.619655
H     4.541477    -1.056982    -1.615333
H     4.758046    -1.224389    0.150349
C     -0.602171    -2.901551    -0.439101
N     -0.375146    -1.783646    -0.243088
C     -0.886291    -4.303746    -0.691506
H     0.049876    -4.873737    -0.722988
H     -1.404634    -4.408025    -1.652439
H     -1.523659    -4.702255    0.106887
C     -3.077832    0.479761    0.471559
N     -1.936558    0.351145    0.326956
C     -4.510497    0.645207    0.646712
H     -4.884649    -0.097762    1.361265
H     -5.018287    0.507006    -0.315588
H     -4.725622    1.650864    1.027105
C     0.359281    -0.410984    3.028046
N     0.208563    -0.215973    1.897541
C     0.549890    -0.654908    4.447980
H     -0.384547    -0.456983    4.986528
H     1.335727    0.004134    4.835818
H     0.843739    -1.699124    4.608209
O     -0.420156    0.324325    -1.868125
H     -0.652553    1.242984    -2.112882
H     0.323895    0.062986    -2.447896
