33

Co     0.035141    -0.023356    -0.018242
N     0.863287    1.683009    0.292862
C     1.361848    2.726691    0.358522
C     1.989352    4.033647    0.449050
H     1.992189    4.376146    1.490971
H     3.022168    3.975083    0.084976
H     1.432656    4.753687    -0.163077
N     1.749734    -0.880685    0.120213
C     2.792352    -1.383630    0.071489
C     4.100878    -2.012026    0.018425
H     4.656442    -1.799170    0.939789
H     3.989020    -3.097357    -0.091187
H     4.662517    -1.618836    -0.838042
N     -0.795064    -1.730436    -0.322730
C     -1.300236    -2.772160    -0.366332
C     -1.935845    -4.076893    -0.425619
H     -1.184509    -4.863006    -0.283503
H     -2.692146    -4.153613    0.365296
H     -2.419520    -4.215031    -1.400196
N     -1.677325    0.836124    -0.164208
C     -2.716511    1.347792    -0.140845
C     -4.020677    1.987224    -0.122831
H     -4.185424    2.527650    -1.062874
H     -4.803979    1.229745    0.001123
H     -4.071960    2.696604    0.712194
C     0.350056    -0.142534    2.854542
O     -0.365558    -0.309268    1.866055
H     1.382974    0.218048    2.783135
H     -0.079542    -0.368141    3.839754
C     -0.276487    0.074856    -2.891042
O     0.433893    0.262720    -1.902406
H     -1.302408    -0.305490    -2.818673
H     0.150507    0.301967    -3.876991
