20

Co     -0.031635    0.025184    0.379777
C     -0.383470    2.906623    -0.642733
O     -0.353208    2.065870    0.253038
H     -0.593851    3.953884    -0.388316
H     -0.203957    2.634108    -1.693214
C     3.001747    0.470333    0.250794
O     1.950353    0.363267    0.878012
H     3.932513    0.674351    0.796446
H     3.032692    0.362727    -0.843496
C     0.473370    -2.994962    0.284871
O     0.231390    -1.965108    0.909975
H     0.560474    -3.944353    0.829687
H     0.606060    -2.987144    -0.807092
C     -2.878095    -0.554759    -0.609276
O     -2.084282    -0.257637    0.280158
H     -2.543238    -0.737143    -1.641108
H     -3.946165    -0.638832    -0.368543
C     -0.409476    0.352506    2.664244
O     -0.592638    0.512614    3.762723
F     0.231414    -0.241531    -1.288963
