33

Co     -0.001111    0.003631    0.034913
C     0.483196    3.017043    -0.408408
N     0.294529    1.885383    -0.241353
C     0.719895    4.436036    -0.618030
H     0.440600    4.713410    -1.641656
H     1.781412    4.662740    -0.461946
H     0.119878    5.022348    0.088316
C     2.994214    -0.535875    -0.449237
N     1.869163    -0.326291    -0.266037
C     4.405610    -0.797515    -0.680297
H     4.898968    0.113100    -1.040608
H     4.519721    -1.588494    -1.431277
H     4.883277    -1.118947    0.253093
C     -0.443157    -3.014191    0.477942
N     -0.281516    -1.878499    0.312502
C     -0.645852    -4.438956    0.685391
H     0.321886    -4.954575    0.693373
H     -1.264258    -4.849312    -0.121956
H     -1.150701    -4.608138    1.644076
C     -3.005052    0.509275    0.519511
N     -1.875299    0.322865    0.337189
C     -4.421298    0.744392    0.747602
H     -4.729492    0.278494    1.691429
H     -5.007625    0.312729    -0.072619
H     -4.616045    1.822388    0.798929
P     0.405272    0.325078    2.370236
H     1.742726    0.600659    2.702196
H     -0.312650    1.398911    2.923788
H     0.066389    -0.769153    3.184391
P     -0.454794    -0.265245    -2.298074
H     0.681269    -0.321017    -3.123767
H     -1.168920    -1.432591    -2.617792
H     -1.228719    0.769495    -2.850869
