22

Co     -0.033821    0.026611    0.096928
N     -0.199121    2.020294    0.300555
H     -1.175161    2.324711    0.345888
H     0.274368    2.458257    1.096428
H     0.165396    2.454477    -0.553996
N     1.945233    0.224921    -0.221272
H     2.317809    1.152839    -0.001313
H     2.560859    -0.445375    0.248692
H     2.079474    0.110686    -1.232205
N     0.105146    -1.943349    -0.298408
H     1.066746    -2.259205    -0.449815
H     -0.304703    -2.599800    0.372957
H     -0.367836    -2.092014    -1.197054
N     -2.030365    -0.162061    0.286039
H     -2.341062    -1.132939    0.375129
H     -2.481320    0.345698    1.052833
H     -2.442958    0.181370    -0.589082
N     0.261166    -0.215717    2.109084
H     -0.503809    0.152553    2.681389
H     0.358629    -1.196820    2.383527
H     1.107392    0.246976    2.453467
Cl     -0.359393    0.351380    -2.108363
