51

Co     -0.040405    0.010370    -0.042337
C     -0.749213    4.722913    -0.718829
C     0.259142    4.048327    -1.409405
C     0.439718    2.690647    -1.180848
N     -0.331167    1.985066    -0.323097
C     -1.302938    2.643657    0.351387
C     -1.536086    4.003345    0.178876
H     -0.910354    5.785583    -0.871723
H     0.907007    4.563298    -2.110774
H     1.237609    2.154791    -1.678528
H     -1.888138    2.064331    1.052070
H     -2.323759    4.481272    0.751410
C     4.668429    0.705678    0.632483
C     3.731381    1.526434    1.258140
C     2.376471    1.305894    1.036478
N     1.927173    0.316471    0.229513
C     2.839935    -0.488710    -0.363040
C     4.208407    -0.321821    -0.193545
H     5.731983    0.854811    0.791404
H     4.034666    2.328919    1.922022
H     1.626841    1.913760    1.524479
H     2.454195    -1.300641    -0.967536
H     4.895310    -0.997039    -0.692864
C     0.531950    -4.696435    0.671850
C     1.046903    -3.778021    1.586065
C     0.875240    -2.418155    1.354739
N     0.222126    -1.949574    0.265585
C     -0.287686    -2.842390    -0.614989
C     -0.147043    -4.214140    -0.448224
H     0.650025    -5.763853    0.831165
H     1.572376    -4.100136    2.478672
H     1.244641    -1.681951    2.055860
H     -0.823287    -2.437305    -1.464019
H     -0.572897    -4.886746    -1.185196
C     -4.743737    -0.753413    -0.619048
C     -4.016525    -0.019907    -1.557377
C     -2.658381    0.185663    -1.350972
N     -2.007477    -0.305420    -0.272247
C     -2.714278    -1.013911    0.639117
C     -4.075664    -1.254311    0.497577
H     -5.807275    -0.925280    -0.753213
H     -4.489107    0.396452    -2.440598
H     -2.073711    0.760137    -2.056610
H     -2.170957    -1.375017    1.501514
H     -4.594362    -1.823360    1.261623
N     -0.454509    0.422889    2.914117
C     -0.298694    0.260478    1.770194
C     0.902706    -0.192251    -3.037689
O     0.099131    -0.292219    -2.121317
H     0.599562    -0.452678    -4.061496
H     1.934678    0.153473    -2.876708
