33

Co     0.000846    -0.006565    0.024102
C     0.486723    3.156739    -0.445246
N     0.306926    2.021535    -0.275069
C     0.711505    4.575871    -0.656917
H     0.436315    4.845953    -1.683953
H     1.769109    4.815387    -0.495940
H     0.097427    5.159246    0.039496
C     3.147184    -0.552868    -0.469288
N     2.017491    -0.349182    -0.290441
C     4.559170    -0.807244    -0.693832
H     5.053223    0.104667    -1.048680
H     4.680060    -1.598843    -1.443270
H     5.031586    -1.131247    0.241710
C     -0.457432    -3.168122    0.502945
N     -0.295848    -2.030595    0.331150
C     -0.658994    -4.590215    0.717302
H     0.306956    -5.108259    0.728520
H     -1.279096    -5.002903    -0.087971
H     -1.168366    -4.754064    1.674677
C     -3.154771    0.501109    0.514435
N     -2.019839    0.324345    0.339716
C     -4.573233    0.723012    0.732882
H     -4.884933    0.247358    1.670689
H     -5.148777    0.286912    -0.092906
H     -4.780836    1.798042    0.786504
P     0.475190    0.409179    2.800142
H     1.770427    0.870364    3.103857
H     -0.372437    1.366980    3.388900
H     0.318630    -0.729681    3.613339
P     -0.518283    -0.303903    -2.756671
H     0.614144    -0.204180    -3.587697
H     -1.097618    -1.535381    -3.118123
H     -1.407195    0.654089    -3.281019
