31

Co     0.069714    -0.170902    0.114823
P     0.440722    2.101359    0.440354
H     -0.451327    3.040819    -0.111397
C     1.654014    2.927277    1.215296
H     2.476207    2.435465    1.729341
H     1.639299    4.017771    1.234223
P     2.345646    -0.481117    -0.297243
H     2.994789    0.354073    -1.225180
C     3.458241    -1.559551    0.294099
H     3.237403    -2.327400    1.031279
H     4.486678    -1.516761    -0.067475
P     -0.323033    -2.456129    -0.209162
H     0.753272    -3.359606    -0.118556
C     -1.692366    -3.325437    -0.562861
H     -2.675472    -2.880797    -0.696217
H     -1.622728    -4.407956    -0.678897
P     -2.202871    0.169107    0.507824
H     -2.806683    -0.405159    1.642895
C     -3.358677    1.031704    -0.314888
H     -3.162652    1.582019    -1.231798
H     -4.379184    1.065465    0.069146
P     0.402623    -0.605796    2.380390
H     0.974277    -1.830061    2.778847
C     -0.008488    0.235291    3.749714
H     -0.477229    1.215870    3.731087
H     0.208170    -0.192390    4.729423
P     -0.254394    0.172938    -2.171680
H     -1.055334    -0.723912    -2.903016
C     0.344812    1.307964    -3.224444
H     1.004853    2.121068    -2.931543
H     0.071787    1.256797    -4.279482
