19

Co     -0.015441    0.174605    -0.187168
S     0.091708    2.497722    0.366674
H     1.126759    3.105265    -0.257161
H     0.693380    2.365991    1.566816
S     2.284109    -0.275937    0.193850
H     2.941553    0.903747    0.134569
H     2.159168    -0.286675    1.542097
S     -0.387948    -2.160321    -0.504541
H     -0.000269    -2.556342    0.728242
H     0.693301    -2.661650    -1.145316
S     -2.365058    0.564365    -0.583818
H     -2.976822    -0.596755    -0.255833
H     -2.750465    1.215320    0.537260
O     -0.166207    -0.093408    1.612271
H     -1.078365    -0.225640    1.920658
P     0.349988    0.553263    -2.565081
H     -0.055100    1.804662    -3.069306
H     -0.327718    -0.312178    -3.446529
H     1.662768    0.469130    -3.069457
