23

Co     0.000292    0.000037    0.000158
N     0.255170    2.157820    0.354236
H     -0.233283    2.482368    1.197652
H     -0.104204    2.717482    -0.428716
H     1.234913    2.442139    0.474913
N     2.145790    -0.450952    0.091260
H     2.389073    -1.026089    0.906974
H     2.752698    0.376106    0.151169
H     2.485041    -0.974237    -0.725189
N     -0.254449    -2.158052    -0.353668
H     -1.234168    -2.442028    -0.475195
H     0.104254    -2.717715    0.429575
H     0.234610    -2.482404    -1.196777
N     -2.145301    0.451590    -0.091626
H     -2.752193    -0.375275    -0.154333
H     -2.387732    1.028797    -0.906117
H     -2.485375    0.972826    0.725797
O     -0.138640    -0.344514    2.030883
H     -0.916087    -0.711540    2.502072
H     0.495459    -0.077517    2.730035
O     0.137487    0.343832    -2.030793
H     -0.499099    0.079921    -2.728844
H     0.915679    0.707379    -2.503483
