55
03/24/2023 16:57, XYZ structure generated by mol3D Class, molSimplify
Co     0.000200    -0.000860    -0.000569
N     0.252956    2.200197    0.325981
C     -0.161258    4.408798    0.564735
N     1.191587    4.191222    0.555051
C     1.408584    2.861380    0.412367
C     -0.734077    3.158785    0.420308
H     2.393981    2.422820    0.374165
H     1.908786    4.904083    0.644575
H     -1.781912    2.905896    0.390071
H     -0.594240    5.393143    0.669221
N     2.186236    -0.315296    0.317360
C     4.412759    -0.438527    -0.050577
N     4.122456    -0.916898    1.200871
C     2.783867    -0.831291    1.391176
C     3.197846    -0.068186    -0.591105
H     2.294335    -1.145407    2.300230
H     4.796124    -1.270800    1.872570
H     3.004732    0.362631    -1.560856
H     5.419104    -0.398156    -0.441356
N     -0.253115    -2.201590    -0.327099
C     0.161167    -4.410278    -0.566642
N     -1.191684    -4.192691    -0.556518
C     -1.408664    -2.862897    -0.413415
C     0.733824    -3.160245    -0.421978
H     -2.394073    -2.424414    -0.374861
H     -1.908894    -4.905537    -0.646067
H     1.781655    -2.907324    -0.391936
H     0.594180    -5.394568    -0.671529
N     -2.186172    0.313403    -0.318640
C     -4.412704    0.437429    0.049747
N     -4.122507    0.914374    -1.202258
C     -2.783973    0.828375    -1.392846
C     -3.197660    0.067477    0.590273
H     -2.294614    1.141465    -2.302343
H     -4.796261    1.267661    -1.874192
H     -3.004396    -0.362352    1.560425
H     -5.418959    0.397637    0.440813
N     -0.360327    -0.350943    2.185314
C     -0.721001    -1.337835    4.186955
N     -0.776837    0.023515    4.326480
C     -0.555841    0.585961    3.113167
C     -0.462206    -1.557906    2.846960
H     -0.543492    1.652718    2.949825
H     -0.951217    0.525834    5.191157
H     -0.342242    -2.502856    2.341543
H     -0.865922    -2.016897    5.014671
N     0.360403    0.350216    -2.186202
C     0.720566    1.337190    -4.187902
N     0.777465    -0.024119    -4.327489
C     0.556737    -0.586492    -3.114090
C     0.461469    1.557188    -2.847950
H     0.545187    -1.653255    -2.950688
H     0.952329    -0.526359    -5.192121
H     0.340747    2.502082    -2.342613
H     0.865068    2.016340    -5.015625
