53

Co     0.055071    -0.039885    0.232648
C     -0.807405    4.932325    -0.534737
C     0.233780    4.266281    -1.180916
C     0.435091    2.892703    -0.928349
N     -0.325510    2.177805    -0.076912
C     -1.334103    2.830191    0.537116
C     -1.610653    4.198583    0.338433
H     -0.988503    5.989012    -0.707134
H     0.889527    4.782587    -1.875201
H     1.227971    2.355798    -1.435884
H     -1.948957    2.249511    1.217693
H     -2.437937    4.659532    0.869303
C     4.982455    0.802250    0.161090
C     4.145135    1.566427    0.974761
C     2.767414    1.314175    0.956524
N     2.198287    0.358094    0.185758
C     3.016514    -0.374935    -0.594668
C     4.405584    -0.185953    -0.638902
H     6.055304    0.969706    0.152184
H     4.539669    2.344989    1.619892
H     2.098365    1.896897    1.581561
H     2.544853    -1.143455    -1.197050
H     5.011010    -0.810027    -1.288548
C     0.702530    -5.009288    0.339435
C     1.136423    -4.205119    1.394428
C     0.936903    -2.823143    1.317994
N     0.336338    -2.216800    0.271086
C     -0.079706    -3.005867    -0.743987
C     0.084867    -4.394374    -0.750649
H     0.842464    -6.085737    0.366280
H     1.623972    -4.629858    2.266011
H     1.284459    -2.181411    2.120831
H     -0.565264    -2.502518    -1.571646
H     -0.270436    -4.973157    -1.597169
C     -4.986191    -0.645978    -0.330993
C     -4.265914    0.218346    -1.152858
C     -2.872441    0.328865    -0.979479
N     -2.182966    -0.357416    -0.037593
C     -2.886524    -1.197779    0.739345
C     -4.282156    -1.372711    0.631184
H     -6.060921    -0.757274    -0.438617
H     -4.754568    0.798378    -1.929487
H     -2.286807    0.964845    -1.633025
H     -2.325612    -1.772381    1.470144
H     -4.786301    -2.067046    1.296266
N     -0.168228    0.227427    2.407619
H     -0.279311    1.215561    2.642420
H     0.638469    -0.086968    2.952412
H     -0.974417    -0.244430    2.822967
C     0.327536    -0.318862    -3.353800
O     0.054315    -0.053914    -2.191173
H     -0.107518    0.256257    -4.186237
H     1.014058    -1.140261    -3.617104
