53

Co     0.006385    -0.003145    0.018517
C     -0.648977    4.729717    -0.752799
C     0.243734    3.988176    -1.529385
C     0.399915    2.630071    -1.275939
N     -0.295207    1.979048    -0.308528
C     -1.170368    2.705612    0.432414
C     -1.365600    4.068908    0.247089
H     -0.782799    5.794182    -0.922155
H     0.825188    4.452341    -2.319702
H     1.111499    2.045102    -1.844787
H     -1.751573    2.173522    1.176308
H     -2.075389    4.595655    0.876961
C     4.741472    0.531185    -0.729983
C     4.063221    1.396273    0.132593
C     2.696786    1.232174    0.317890
N     1.987735    0.247464    -0.292289
C     2.649534    -0.588810    -1.128845
C     4.013795    -0.470081    -1.374188
H     5.809250    0.638343    -0.897271
H     4.578554    2.197921    0.652021
H     2.148474    1.927585    0.943401
H     2.073046    -1.372335    -1.602095
H     4.491216    -1.165282    -2.057321
C     0.797423    -4.706192    0.696864
C     1.559651    -3.757235    1.381936
C     1.310090    -2.407741    1.169289
N     0.339345    -1.967338    0.329892
C     -0.394307    -2.890719    -0.336411
C     -0.191289    -4.257289    -0.179881
H     0.973275    -5.768302    0.840123
H     2.347443    -4.050920    2.068216
H     1.921486    -1.662526    1.663249
H     -1.161748    -2.523615    -1.003621
H     -0.808271    -4.952275    -0.740295
C     -4.728760    -0.764492    0.710990
C     -4.274656    0.053717    -0.324979
C     -2.909092    0.261755    -0.476123
N     -1.982744    -0.306535    0.334241
C     -2.432943    -1.109705    1.330702
C     -3.783024    -1.351278    1.553399
H     -5.790441    -0.940274    0.857500
H     -4.965479    0.535810    -1.009241
H     -2.547407    0.923867    -1.251218
H     -1.694841    -1.599059    1.953427
H     -4.078602    -1.998438    2.372973
N     0.238744    0.332577    1.942432
H     1.228192    0.451169    2.166767
H     -0.105136    -0.438429    2.517574
H     -0.242158    1.179701    2.253596
C     -0.606355    0.013189    -2.940787
O     -0.182630    -0.504319    -1.910060
H     -1.013546    1.032341    -2.963380
H     -0.572141    -0.561061    -3.875896
