20

Co     -0.053458    0.083395    0.583333
C     0.773167    2.557151    -0.567275
O     0.229664    1.987296    0.382038
H     0.867131    3.649287    -0.522762
H     1.149382    2.003511    -1.436394
C     2.654952    -0.756822    0.279085
O     1.827216    -0.161104    0.972026
H     3.684641    -0.820503    0.652339
H     2.387861    -1.207443    -0.684832
C     -0.688634    -2.656181    0.148444
O     -0.347819    -1.793295    0.961112
H     -0.830220    -3.680185    0.515713
H     -0.840204    -2.423478    -0.912811
C     -2.552424    0.598873    -0.680621
O     -1.958683    0.360814    0.373901
H     -2.023538    0.657357    -1.640096
H     -3.638520    0.746677    -0.635869
C     -0.338588    0.430735    2.615579
O     -0.492957    0.622765    3.712350
F     0.190990    -0.198885    -1.108337
