25

Co     0.007555    0.059110    -0.043528
N     0.161396    2.010594    -0.021229
H     -0.599141    2.698262    -0.002411
C     1.361900    2.465775    -0.030224
H     1.603549    3.530836    -0.016489
C     2.414028    1.413734    -0.061300
H     3.479056    1.655439    -0.076555
N     1.958947    0.213183    -0.068769
H     2.646627    -0.547334    -0.087867
N     0.030299    -1.892257    0.110850
H     0.046542    -2.580064    -0.649611
C     0.023852    -2.347209    1.311449
H     0.037390    -3.412227    1.553281
C     -0.003609    -1.294887    2.363400
H     -0.014871    -1.536130    3.428581
N     -0.012471    -0.094511    1.907918
H     -0.027646    0.666198    2.595478
N     -1.943901    0.082222    -0.196023
H     -2.631044    0.101111    0.564987
C     -2.399827    0.073634    -1.396247
H     -3.465039    0.087722    -1.637214
C     -1.348456    0.042761    -2.449071
H     -1.590876    0.028051    -3.513945
N     -0.147613    0.035009    -1.994748
H     0.612467    0.016328    -2.682917
