19

Co     0.026172    -0.013820    0.063399
O     0.212536    2.042662    -0.317699
P     0.746841    3.459304    -0.463295
H     -0.353089    4.132797    -1.123941
O     2.068133    -0.371880    -0.229828
P     3.570629    -0.506361    -0.423761
H     3.702126    -1.861691    -0.922030
O     -0.319273    -2.050883    0.401755
P     -0.450836    -3.492763    0.869331
H     -1.516098    -3.999086    0.026728
O     -2.012322    0.312427    0.355236
P     -3.517306    0.495402    0.508499
H     -3.606992    1.355113    1.671596
O     0.409436    0.295797    2.101983
P     0.551517    0.440376    3.609487
H     1.741293    1.259637    3.735035
O     -0.169985    -0.283630    -2.001822
P     -0.970130    -0.631096    -3.250525
H     -0.000600    -0.398532    -4.298988
