17

Co     0.005619    0.001115    -0.004115
C     0.356095    -0.302503    1.951443
O     0.600787    -0.486144    3.029946
C     -0.280244    0.231964    -1.981347
O     -0.430487    0.307127    -3.089661
O     -0.176490    1.910049    0.352553
H     -0.232197    2.571887    -0.375617
H     -0.714693    2.266614    1.098032
O     1.921555    0.251075    -0.162992
H     2.423376    -0.056360    -0.955346
H     2.284236    1.133344    0.091787
O     0.346828    -1.865500    -0.396051
H     1.083078    -2.373712    0.020565
H     -0.425535    -2.469781    -0.501207
O     -1.889278    -0.443118    0.173313
H     -2.277166    -0.753649    1.024830
H     -2.595484    0.077592    -0.276131
