25

Co     -0.082590    -0.093877    -0.258822
C     0.159697    2.700977    0.421939
O     -0.540213    1.773054    0.015055
H     1.215033    2.567202    0.681882
H     -0.301984    3.690826    0.519474
C     2.677074    -0.439085    0.424520
O     1.787256    0.322381    0.039807
H     2.489704    -1.498585    0.628239
H     3.685055    -0.029775    0.561234
C     -0.377505    -2.947615    -0.563163
O     0.364140    -1.965003    -0.527762
H     0.078657    -3.933548    -0.712809
H     -1.464178    -2.867150    -0.454961
C     -2.933547    0.085076    -0.112924
O     -1.947915    -0.484742    -0.587192
H     -2.841111    0.937698    0.567759
H     -3.927503    -0.283731    -0.392497
N     -0.482604    -0.602916    2.694044
C     -0.324498    -0.406160    1.556680
N     0.187985    0.238337    -2.237211
C     0.337128    0.424094    -3.370046
C     0.524588    0.658319    -4.793503
H     -0.422551    0.972734    -5.245378
H     1.273284    1.443542    -4.944933
H     0.866591    -0.262085    -5.279262
