23

Co     0.000719    0.004062    0.000265
N     0.170205    1.979130    0.367110
H     -0.642076    2.429788    0.808558
H     0.311371    2.474579    -0.522250
H     0.970789    2.235325    0.958998
N     1.991067    -0.205146    0.250274
H     2.558839    0.600444    -0.043516
H     2.411540    -1.015257    -0.222841
H     2.187917    -0.335192    1.250657
N     -0.157578    -1.983765    -0.317642
H     0.049666    -2.231350    -1.293336
H     -1.092172    -2.371199    -0.135844
H     0.486014    -2.552718    0.247699
N     -1.988732    0.216271    -0.292448
H     -2.531323    0.025316    0.559632
H     -2.390562    -0.401447    -1.009584
H     -2.258454    1.166777    -0.575207
O     -0.216486    -0.312369    1.928258
H     -0.419117    0.394291    2.574340
H     -0.493623    -1.160336    2.331947
O     0.295021    0.376699    -1.905869
H     -0.399859    0.367315    -2.595264
H     1.156839    0.298784    -2.363938
