34

Co     -0.000016    -0.000000    -0.068769
O     -0.000108    -0.001112    1.949437
H     0.789317    0.030894    2.518970
H     -0.789851    -0.028626    2.518793
C     -0.000822    1.938412    -0.065380
N     -0.000788    3.093020    -0.038052
C     0.000034    4.532604    -0.002099
H     0.839806    4.894684    -0.601045
H     0.107589    4.854404    1.037074
H     -0.946259    4.891791    -0.415011
C     1.936885    0.000151    -0.066124
N     3.091984    0.000318    -0.039664
C     4.532282    0.000027    -0.006482
H     4.893152    -0.840402    -0.605297
H     4.856237    -0.108175    1.032258
H     4.890280    0.947026    -0.418869
C     0.000814    -1.938452    -0.065598
N     0.000801    -3.093026    -0.038132
C     0.000095    -4.532629    -0.002132
H     -0.839730    -4.894761    -0.600974
H     -0.107378    -4.854421    1.037053
H     0.946404    -4.891726    -0.415090
C     -1.936860    -0.000244    -0.065633
N     -3.091886    -0.000507    -0.038849
C     -4.532210    0.000751    -0.006155
H     -4.897812    -0.608952    -0.836784
H     -4.882045    1.031671    -0.104396
H     -4.859582    -0.422731    0.947322
C     -0.000202    0.000335    -1.948465
N     -0.000362    0.000504    -3.102168
C     -0.000080    0.000007    -4.542589
H     -0.608513    -0.839640    -4.889250
H     1.031286    -0.107838    -4.888967
H     -0.422460    0.946642    -4.890254
