25

Cr     0.004600    -0.012849    -0.021722
N     -0.226144    2.059233    -0.252532
H     -1.170272    2.402212    0.000113
N     0.424197    3.034931    -0.676465
H     1.377142    2.730460    -0.945878
N     2.089293    0.281253    -0.023328
H     2.582652    0.441313    0.870460
N     2.942441    0.232845    -0.931967
H     2.470936    0.077344    -1.841791
N     0.232753    -2.085897    0.211091
H     1.180100    -2.428325    -0.029977
N     -0.422524    -3.062320    0.625487
H     -1.378973    -2.758836    0.883444
N     -2.080115    -0.306850    -0.020736
H     -2.573729    -0.463800    -0.914940
N     -2.933111    -0.260361    0.888157
H     -2.461311    -0.108006    1.798373
N     0.239341    0.006172    2.072953
H     0.299667    -0.885723    2.592187
N     0.320561    0.935653    2.901086
H     0.276076    1.842546    2.401980
N     -0.228835    -0.031957    -2.116299
H     -0.292038    0.860102    -2.634966
N     -0.305201    -0.961142    -2.945261
H     -0.258110    -1.868255    -2.446814
