19

Cr     -0.016542    0.006369    -0.015649
S     0.475985    2.303206    0.292385
C     2.130566    2.430320    0.114284
H     2.582040    3.415061    0.239897
C     2.938267    1.317606    -0.234472
H     4.010425    1.447196    -0.385901
S     2.313548    -0.223994    -0.368250
S     -0.410813    -2.317209    -0.242061
C     -0.202226    -2.955022    1.286042
H     -0.318357    -4.032490    1.407907
C     0.073403    -2.138369    2.412484
H     0.161328    -2.585318    3.403325
S     0.329756    -0.495137    2.273005
S     -2.344103    0.350043    0.268871
C     -2.933174    0.713449    -1.249148
H     -3.996801    0.935301    -1.343079
C     -2.106195    0.692872    -2.401393
H     -2.533852    0.889073    -3.385200
S     -0.461598    0.429407    -2.305397
