23

Cr     0.000180    -0.003456    -0.196321
C     -0.005379    2.059146    0.033462
O     -0.008656    3.166409    0.259266
C     2.063067    -0.000474    -0.225621
O     3.191460    0.000506    -0.284298
C     0.005859    -2.062674    0.061254
O     0.009140    -3.166611    0.302728
C     -2.062796    -0.005864    -0.225207
O     -3.191196    -0.002988    -0.284046
O     0.000500    0.004543    1.951536
H     0.777984    0.074851    2.538207
H     -0.778110    -0.039800    2.539253
C     -0.000319    -0.037713    -5.040260
C     0.013302    1.170154    -4.337936
C     0.013614    1.146201    -2.952517
N     -0.000170    -0.013684    -2.235469
C     -0.014022    -1.185838    -2.932179
C     -0.013909    -1.232870    -4.316765
H     -0.000407    -0.047614    -6.126007
H     0.023924    2.124950    -4.853075
H     0.025365    2.075945    -2.398303
H     -0.025810    -2.107685    -2.364896
H     -0.024563    -2.196262    -4.815075
