48

Cr     -0.006828    -0.026400    -0.018100
O     0.024709    2.122312    0.050297
C     -1.030095    2.947848    0.484252
C     -0.588382    4.216297    0.594702
C     0.805139    4.224035    0.222629
C     1.148183    2.959458    -0.095626
H     -1.974665    2.449775    0.625926
H     -1.180213    5.067990    0.901091
H     2.049916    2.467925    -0.420363
H     1.462561    5.082469    0.196690
O     2.138251    -0.045548    -0.063169
C     3.043685    0.268803    0.970112
C     4.306451    0.117140    0.523714
C     4.229485    -0.313063    -0.850982
C     2.924496    -0.398031    -1.177681
H     2.607135    0.589978    1.901486
H     5.205745    0.291095    1.099075
H     2.375759    -0.675510    -2.060971
H     5.061039    -0.530494    -1.507435
O     -0.040249    -2.178553    0.051029
C     1.003337    -3.009755    0.500570
C     0.566842    -4.283459    0.558333
C     -0.812956    -4.288201    0.138090
C     -1.153197    -3.016724    -0.156067
H     1.937517    -2.509935    0.696020
H     1.152565    -5.140437    0.861823
H     -2.047197    -2.520676    -0.495620
H     -1.462118    -5.150779    0.068672
O     -2.156775    -0.005602    -0.106961
C     -3.075904    -0.328408    0.911131
C     -4.328452    -0.297227    0.414552
C     -4.231108    0.059506    -0.979417
C     -2.924425    0.227016    -1.266295
H     -2.652497    -0.551013    1.876775
H     -5.235019    -0.499577    0.968549
H     -2.368016    0.504356    -2.144652
H     -5.053061    0.177047    -1.672674
C     -0.021984    -0.024943    2.039772
O     -0.025894    -0.024599    3.171923
O     0.011406    -0.022266    -2.176366
C     -0.111112    -1.135755    -3.025425
C     -0.029368    -0.729433    -4.309833
C     0.151994    0.700591    -4.299978
C     0.175054    1.097110    -3.010226
H     -0.250203    -2.080702    -2.526939
H     -0.090163    -1.367983    -5.180639
H     0.287232    2.039264    -2.500178
H     0.253562    1.346417    -5.161634
