23

Cr     -0.000572    -0.000417    -0.000339
P     -0.383756    2.574764    0.273030
H     -1.485094    2.998446    1.044729
H     0.637911    3.303518    0.914295
H     -0.572283    3.368699    -0.875916
P     2.602607    0.410012    -0.374824
H     3.117423    1.722445    -0.353146
H     3.487405    -0.201203    0.538112
H     3.174944    -0.044478    -1.581159
P     0.382102    -2.575450    -0.274558
H     1.484005    -2.998493    -1.045805
H     0.569717    -3.370417    0.873819
H     -0.639158    -3.303449    -0.917315
P     -2.603660    -0.409455    0.376604
H     -3.119555    -1.721480    0.355928
H     -3.173564    0.045586    1.583884
H     -3.489509    0.202450    -0.534844
O     0.337114    0.025438    2.406594
H     1.177256    -0.005040    2.895949
H     -0.353581    -0.037539    3.088002
O     -0.338196    -0.026186    -2.406793
H     -1.178229    0.004970    -2.896291
H     0.352732    0.037695    -3.087879
