25
03/24/2023 16:57, XYZ structure generated by mol3D Class, molSimplify
Cr     -0.164883    0.053824    -0.069274
N     0.906982    2.286528    0.321859
H     0.586879    3.236089    0.530379
C     2.170507    2.216469    0.151286
H     2.852574    3.066503    0.223645
C     2.753459    0.881284    -0.175642
H     3.836036    0.794545    -0.282967
N     1.963727    -0.116912    -0.326657
H     2.441843    -0.994354    -0.542220
N     -0.434128    -2.421284    0.244337
H     -0.600206    -3.231221    -0.359059
C     -0.469590    -2.715589    1.486401
H     -0.646655    -3.718470    1.881049
C     -0.248295    -1.609044    2.463133
H     -0.209849    -1.847092    3.527385
N     -0.110106    -0.414321    2.019543
H     0.043035    0.283256    2.750645
N     -2.262841    0.436707    -0.212909
H     -2.977856    0.476813    0.516908
C     -2.702604    0.662149    -1.397886
H     -3.747873    0.877209    -1.622782
C     -1.701682    0.619730    -2.496452
H     -2.015932    0.795689    -3.525895
N     -0.489941    0.371713    -2.154976
H     0.175879    0.346445    -2.930106
