31

Cr     -0.020423    -0.219852    -0.011493
O     0.299687    1.954047    0.072119
H     -0.326845    2.588491    0.457498
C     1.664293    2.312239    0.419061
H     1.918399    3.283254    -0.017317
H     1.771083    2.367354    1.509005
C     2.528667    1.218960    -0.172534
H     3.573348    1.304431    0.135486
H     2.473932    1.217832    -1.262126
O     2.001290    -0.083707    0.243222
H     2.269725    -0.263323    1.164453
O     -0.156393    -2.251894    0.112935
H     -0.702791    -2.863758    -0.407584
C     0.206344    -2.819749    1.415238
H     -0.165866    -3.843445    1.493465
H     1.297989    -2.831507    1.455992
C     -0.391516    -1.931632    2.485171
H     -1.484065    -2.004637    2.501252
H     0.007115    -2.190892    3.470704
O     -0.001486    -0.570598    2.136363
H     -0.357898    0.055808    2.788723
O     -2.032525    0.225171    -0.177077
H     -2.779852    -0.293667    0.165600
C     -2.375262    0.847013    -1.466218
H     -2.106234    1.900810    -1.380810
H     -3.449231    0.760804    -1.643758
C     -1.571722    0.163319    -2.549791
H     -1.638074    0.722390    -3.487913
H     -1.907296    -0.867032    -2.713874
O     -0.193637    0.164600    -2.076101
H     0.379194    -0.254545    -2.742337
