34

Cr     -0.000010    0.000054    0.019341
O     0.000018    0.000042    2.552741
H     0.767138    0.035761    3.148018
H     -0.767733    -0.033038    3.147363
C     -0.001729    2.157555    0.070104
N     -0.001418    3.318288    0.054684
C     0.000412    4.747441    0.020451
H     0.835845    5.085955    -0.597275
H     0.109350    5.130197    1.038038
H     -0.942587    5.093523    -0.409744
C     2.165693    0.001315    0.089038
N     3.326771    0.000787    0.067830
C     4.755996    -0.000612    0.018235
H     5.088274    -0.835907    -0.602978
H     5.150559    -0.109590    1.031385
H     5.097323    0.942304    -0.415823
C     0.001823    -2.157468    0.069657
N     0.001536    -3.318138    0.054401
C     -0.000204    -4.747342    0.020407
H     -0.835716    -5.085997    -0.597129
H     -0.108986    -5.129964    1.038061
H     0.942770    -5.093422    -0.409832
C     -2.165759    -0.001374    0.089947
N     -3.326707    -0.001118    0.068387
C     -4.755977    0.000048    0.017745
H     -5.080356    -0.606455    -0.831369
H     -5.106783    1.027505    -0.105523
H     -5.148612    -0.419728    0.947068
C     -0.001628    0.001452    -2.443197
N     -0.001019    0.000925    -3.608209
C     0.000157    -0.000402    -5.037987
H     -0.606188    -0.835121    -5.398006
H     1.026335    -0.109257    -5.397281
H     -0.418590    0.941783    -5.399869
