25

Cr     -0.059776    0.002869    -0.005722
N     -0.144975    2.619590    0.203443
H     -0.084617    3.160651    -0.676918
N     0.061691    3.418478    1.137159
H     0.001546    2.902289    2.034731
N     2.093962    0.000610    -0.189271
H     2.638906    0.880195    -0.189652
N     2.875542    -0.955832    -0.336330
H     2.324349    -1.835465    -0.339404
N     0.028532    -2.615023    -0.213449
H     -0.033105    -3.154750    0.667650
N     -0.177901    -3.415130    -1.146209
H     -0.116362    -2.900434    -2.044551
N     -2.213513    0.005019    0.177195
H     -2.758466    -0.874564    0.176227
N     -2.995274    0.961236    0.324646
H     -2.444326    1.840990    0.328768
N     -0.006665    -0.293727    2.155338
H     -0.897433    -0.352249    2.676709
N     0.923574    -0.424067    2.970233
H     1.827657    -0.371240    2.468337
N     -0.113008    0.299623    -2.167065
H     0.777974    0.358022    -2.688084
N     -1.042774    0.431060    -2.982292
H     -1.947121    0.378455    -2.480831
