31

Cr     0.154641    -0.126771    -0.072354
O     -0.180043    1.897864    0.216533
H     -1.126390    2.129700    0.239545
P     0.990911    3.184471    0.420524
H     0.390574    4.117727    -0.466605
H     0.416590    3.776854    1.577349
O     2.587705    -0.291981    0.031322
H     3.000888    0.152458    -0.728258
P     3.832309    -0.471633    1.255977
H     3.013463    -0.056002    2.344046
H     3.589288    -1.851752    1.510643
O     0.554240    -2.149809    -0.381130
H     1.528520    -2.209368    -0.375104
P     -0.159743    -3.751894    -0.605667
H     -1.048056    -3.662222    0.502992
H     -1.149490    -3.319753    -1.530024
O     -2.274742    -0.098595    -0.262841
H     -2.687444    -0.303999    0.592393
P     -3.502034    -0.308901    -1.494598
H     -3.335282    0.965383    -2.106534
H     -2.638997    -0.947915    -2.430643
O     -0.161162    -0.517999    1.980070
H     -0.153280    -1.471798    2.164612
P     -0.179902    0.335065    3.526976
H     0.866326    1.240395    3.200253
H     -1.200613    1.254723    3.160520
O     0.474144    0.162540    -2.135442
H     0.562638    -0.693547    -2.586828
P     0.284447    1.412588    -3.367287
H     -0.706446    2.141174    -2.655481
H     1.342885    2.241053    -2.902028
