19

Cr     -0.039040    0.007293    -0.101677
S     0.383228    2.487967    -0.603162
H     0.027109    3.165658    0.508930
H     1.686934    2.835180    -0.531975
S     2.469881    -0.315803    -0.495622
H     2.793071    -1.618660    -0.343540
H     3.175860    0.090574    0.580696
S     -0.564171    -2.479449    0.210876
H     0.456339    -2.983137    0.937531
H     -1.475452    -2.653758    1.192699
S     -2.540611    0.396350    0.239319
H     -3.256173    -0.440952    -0.542312
H     -2.882218    1.500099    -0.461321
O     0.080915    0.360753    1.902261
H     0.824970    0.777145    2.373202
H     -0.559241    0.064157    2.576403
O     -0.148758    -0.356050    -2.099995
H     -0.854960    -0.856310    -2.549135
H     0.425966    0.020161    -2.793724
