43

Cr     -0.020617    0.016525    -0.034482
O     0.008644    2.114718    -0.354346
C     -1.031782    2.991674    0.002885
C     -0.568965    4.259416    -0.000790
C     0.823672    4.209627    -0.369001
C     1.142935    2.914984    -0.572558
H     -1.989282    2.523140    0.162815
H     -1.147708    5.146616    0.217989
H     2.040309    2.384343    -0.843262
H     1.496432    5.050090    -0.471722
O     2.219403    0.011352    0.059937
C     2.982609    0.251022    1.210682
C     4.276475    -0.048293    0.965231
C     4.359002    -0.502764    -0.400279
C     3.110698    -0.457270    -0.912306
H     2.434212    0.637681    2.052903
H     5.094792    0.046985    1.665982
H     2.670174    -0.690737    -1.867274
H     5.250693    -0.818600    -0.924259
O     -0.004907    -2.076910    0.278886
C     1.067248    -2.870441    0.719090
C     0.773540    -4.171138    0.515826
C     -0.537644    -4.231234    -0.079520
C     -0.980396    -2.963210    -0.210901
H     1.911675    -2.332915    1.118749
H     1.410803    -5.009482    0.761591
H     -1.893877    -2.501266    -0.549352
H     -1.078479    -5.124832    -0.360101
O     -2.304870    0.006410    -0.108017
C     -3.190463    -0.403961    0.896509
C     -4.447566    -0.451081    0.407389
C     -4.380680    -0.054405    -0.976774
C     -3.086525    0.211400    -1.253964
H     -2.745122    -0.603398    1.856850
H     -5.334873    -0.731521    0.958369
H     -2.547628    0.534853    -2.128241
H     -5.208098    0.022875    -1.668826
O     -0.117391    0.366385    2.032593
H     -0.365029    1.230795    2.405709
H     -0.201749    -0.306792    2.730092
O     0.017707    -0.289356    -2.117883
H     0.132747    0.396632    -2.798326
H     -0.041964    -1.156037    -2.557081
