37

Cr     -0.027815    0.032012    -0.047072
P     -0.185884    2.483197    0.257827
H     -1.173143    3.269923    -0.375108
H     -0.372039    2.945452    1.580414
C     1.402380    3.313514    -0.266302
H     1.457789    4.323149    0.151762
H     1.362295    3.416666    -1.356696
C     2.613830    2.472650    0.160821
H     2.754452    2.516729    1.246752
H     3.533595    2.845968    -0.299061
P     2.355206    0.675978    -0.277091
H     3.398734    0.027659    0.418881
H     2.885292    0.568646    -1.582900
P     0.295707    -2.413033    -0.228619
H     -0.593012    -3.250987    -0.937110
H     1.501580    -2.837718    -0.831427
C     0.351598    -3.209099    1.460067
H     0.827508    -4.192322    1.399587
H     -0.687781    -3.370926    1.767820
C     1.083874    -2.301848    2.458942
H     0.954352    -2.660489    3.484374
H     2.160463    -2.287209    2.254580
P     0.482632    -0.540698    2.308813
H     -0.621075    -0.490586    3.190061
H     1.407528    0.175048    3.100345
P     -2.467662    -0.387228    0.067090
H     -3.217010    0.252675    1.078733
H     -2.963232    -1.698860    0.246664
C     -3.297579    0.176546    -1.507664
H     -3.444431    1.259321    -1.424408
H     -4.288531    -0.278374    -1.598385
C     -2.416550    -0.165680    -2.718787
H     -2.383393    -1.247957    -2.887202
H     -2.807374    0.291916    -3.632499
P     -0.662062    0.398336    -2.415521
H     0.073395    -0.259257    -3.425679
H     -0.635849    1.702248    -2.960471
