13

Cr     0.000093    0.000068    0.001901
N     0.000410    2.362566    0.002627
N     0.000597    3.467210    0.002955
N     2.362032    -0.000410    0.000951
N     3.466673    -0.000264    0.003484
N     -0.000393    -2.362442    0.000230
N     -0.000181    -3.467084    0.002368
N     -2.361873    0.000403    0.000947
N     -3.466515    0.000603    0.003448
N     0.000012    -0.000773    2.142978
N     -0.000035    -0.001320    3.247524
N     0.000248    0.000956    -2.139215
N     0.000348    0.001507    -3.243757
