17

Cr     -0.000231    0.000218    -0.044797
C     -0.000051    2.060244    -0.044730
O     0.000317    3.188354    -0.065104
C     2.060014    0.000092    -0.044868
O     3.188110    0.000068    -0.065627
C     -0.000019    -2.059946    -0.045409
O     0.000291    -3.188048    -0.065232
C     -2.060176    0.000137    -0.045264
O     -3.188293    0.000068    -0.064701
C     0.000311    0.000036    2.129212
O     -0.000546    -0.000091    3.254008
C     -0.000848    0.000799    -2.110251
N     -0.000529    0.000853    -3.268417
C     0.000283    -0.000339    -4.702855
H     -0.609574    -0.839925    -5.049215
H     1.032366    -0.109674    -5.048745
H     -0.421422    0.947144    -5.051103
