51

Cr     -0.093722    -0.069244    -0.176481
O     -0.090700    2.059098    0.029710
C     -1.211681    2.887770    0.197692
C     -0.802995    4.150595    0.441489
C     0.637949    4.146096    0.434778
C     1.036973    2.880775    0.187791
H     -2.165301    2.399883    0.085562
H     -1.446346    5.004235    0.605084
H     1.986117    2.382701    0.083605
H     1.288083    4.995329    0.595061
O     2.237532    -0.074583    0.153398
C     2.887021    0.011598    1.388369
C     4.217161    0.149782    1.196335
C     4.441647    0.150832    -0.226040
C     3.235827    0.012641    -0.820640
H     2.255141    -0.049325    2.257691
H     4.966184    0.239012    1.971164
H     2.909710    -0.051122    -1.845111
H     5.393552    0.239227    -0.731262
O     -0.112267    -2.250567    -0.151730
C     0.957749    -3.082030    0.209978
C     0.548091    -4.368397    0.200310
C     -0.841646    -4.375042    -0.182843
C     -1.210158    -3.092250    -0.386532
H     1.884929    -2.570603    0.410279
H     1.157895    -5.229856    0.435786
H     -2.118505    -2.590370    -0.676672
H     -1.478648    -5.242493    -0.288833
O     -2.409874    -0.059536    -0.371239
C     -3.372215    -0.092603    0.643016
C     -4.606261    0.033367    0.108435
C     -4.440217    0.154557    -1.317357
C     -3.114688    0.095839    -1.570450
H     -2.998115    -0.214577    1.646072
H     -5.539246    0.038348    0.655176
H     -2.511974    0.141255    -2.461628
H     -5.224430    0.269420    -2.053108
O     -0.244170    -0.298610    1.913198
H     -0.459369    0.394000    2.561470
H     -0.447848    -1.163069    2.311111
C     0.638376    0.088124    -5.042199
C     0.524701    -1.129405    -4.369938
C     0.305849    -1.124584    -2.998485
N     0.197784    0.016354    -2.269991
C     0.306651    1.195326    -2.935770
C     0.524271    1.268368    -4.306200
H     0.809894    0.116378    -6.113960
H     0.601688    -2.075439    -4.895034
H     0.204705    -2.051569    -2.450886
H     0.213499    2.103620    -2.354771
H     0.600462    2.240134    -4.782205
