31

Cr     0.002662    -0.011553    0.019999
N     0.158112    2.142527    -0.468281
H     -0.277146    2.816187    0.168653
H     -0.302512    2.198476    -1.390512
O     1.534282    2.505522    -0.609079
H     1.580269    3.423528    -0.944398
N     2.157745    -0.114004    -0.185483
H     2.514312    0.368825    -1.016724
H     2.630380    -1.022332    -0.180940
O     2.756270    0.549084    0.951547
H     2.635407    1.505053    0.759914
N     -0.148741    -2.166259    0.512706
H     0.315352    -2.220660    1.433400
H     0.283567    -2.840946    -0.125130
O     -1.524478    -2.528994    0.659275
H     -1.569114    -3.445581    0.998656
N     -2.152654    0.088140    0.223897
H     -2.628109    0.994953    0.213204
H     -2.510081    -0.391571    1.056566
O     -2.746380    -0.582229    -0.911736
H     -2.625127    -1.537060    -0.714517
N     0.164057    0.086488    2.618500
H     -0.598773    -0.320143    3.166526
H     0.485394    0.862330    3.209097
O     1.184813    -0.944416    2.753995
H     1.976695    -0.508598    2.369779
N     -0.156485    -0.114310    -2.576770
H     -0.483197    -0.891390    -3.162710
H     0.603960    0.288693    -3.130819
O     -1.175957    0.918632    -2.710220
H     -1.969571    0.481924    -2.330876
