33

Cr     0.006276    -0.002210    0.002356
C     0.316966    2.128034    0.357405
N     0.480694    3.262704    0.545601
C     0.682115    4.660684    0.778070
H     1.640574    4.959840    0.346979
H     0.684373    4.846742    1.854821
H     -0.128400    5.221099    0.305896
C     2.134836    -0.357354    0.308407
N     3.269081    -0.546880    0.473847
C     4.666743    -0.780161    0.677267
H     5.037756    -1.435174    -0.114731
H     4.811156    -1.254828    1.650822
H     5.195555    0.175555    0.647391
C     -0.300439    -2.131411    -0.353834
N     -0.463942    -3.265763    -0.544662
C     -0.665428    -4.663206    -0.781337
H     -1.429765    -4.787515    -1.552195
H     -0.992527    -5.138535    0.146592
H     0.275311    -5.107476    -1.115286
C     -2.126655    0.342154    -0.307403
N     -3.262484    0.520085    -0.474878
C     -4.662362    0.736463    -0.680914
H     -4.902613    1.774883    -0.440175
H     -5.226580    0.064139    -0.030070
H     -4.905031    0.532382    -1.726627
N     -0.402096    -0.329050    2.440074
H     -1.213865    0.175478    2.799954
H     -0.563873    -1.310077    2.673631
H     0.384352    -0.036869    3.022389
N     0.363998    0.390752    -2.435995
H     -0.114367    1.215748    -2.801305
H     1.352107    0.527301    -2.654901
H     0.059489    -0.387545    -3.022797
