14

Cr     0.000027    0.000009    0.061458
C     0.000571    2.095918    0.002574
O     -0.000023    3.222635    -0.003514
C     2.083546    0.000415    0.016230
O     3.210617    -0.000165    -0.011323
C     -0.000449    -2.095870    0.002213
O     0.000046    -3.222586    -0.003742
C     -2.083561    -0.000306    0.016066
O     -3.210573    0.000244    -0.011364
O     -0.000029    0.000023    2.094472
H     0.783485    0.030580    2.681214
H     -0.783522    -0.030540    2.681244
C     -0.000110    -0.000245    -2.108429
O     -0.000025    -0.000114    -3.232774
