21

Cr     0.026261    0.035035    0.660070
C     0.346989    2.852552    0.111547
O     0.292543    1.977069    0.976614
H     0.230312    2.593206    -0.949200
H     0.525287    3.893692    0.403513
C     2.826804    -0.514625    0.145115
O     1.955484    -0.300445    0.988704
H     3.867866    -0.645053    0.461821
H     2.570395    -0.565007    -0.921481
C     -0.184061    -2.647052    -0.525569
O     -0.246231    -1.979657    0.505993
H     0.063468    -2.167993    -1.479974
H     -0.387559    -3.724193    -0.487045
C     -2.609875    0.581379    -0.540698
O     -1.972092    0.384289    0.492651
H     -2.102506    0.619761    -1.512306
H     -3.697989    0.709890    -0.488566
O     -0.304848    -0.223017    2.686729
H     -0.226759    -1.129108    3.030248
H     -1.094382    0.175103    3.091079
F     0.120904    0.074169    -1.165856
