151

Cr     -0.021559    -0.108200    -0.014361
C     0.306824    1.998847    -0.322035
N     0.455601    3.145224    -0.479650
C     0.612519    4.512181    -0.657671
C     -0.363080    5.387785    -0.160181
C     -0.196026    6.752429    -0.345143
C     0.923674    7.285091    -1.015429
C     1.054316    8.805994    -1.193181
C     -0.154371    9.321710    -2.012770
C     1.059193    9.480840    0.200285
C     2.346710    9.200257    -1.932639
C     1.879580    6.376023    -1.498825
C     1.737080    5.001406    -1.329245
H     -1.230843    4.995480    0.360160
H     -0.958237    7.420103    0.042046
H     -0.185896    8.859255    -3.005531
H     -0.077151    10.406094    -2.147053
H     -1.107593    9.118668    -1.513504
H     1.907749    9.139242    0.803392
H     0.140819    9.274402    0.759246
H     1.140306    10.567255    0.087180
H     3.244953    8.893027    -1.384824
H     2.386989    10.288616    -2.039825
H     2.389686    8.772550    -2.940702
H     2.757113    6.737480    -2.020544
H     2.484642    4.313390    -1.710725
C     2.461592    -0.454966    0.393143
N     3.609851    -0.553810    0.600727
C     4.973090    -0.663425    0.847913
C     5.546572    -1.927088    1.041466
C     6.909898    -2.018821    1.287649
C     7.737049    -0.880031    1.349406
C     9.240388    -1.038697    1.630561
C     9.426164    -1.704148    3.016068
C     9.870823    -1.936442    0.538051
C     9.979365    0.312930    1.633280
C     7.127447    0.369136    1.150227
C     5.762234    0.488858    0.901691
H     4.926420    -2.816622    0.998374
H     7.339219    -3.004264    1.435234
H     8.996102    -1.086580    3.812502
H     10.493029    -1.834069    3.228133
H     8.955835    -2.691888    3.062663
H     9.752807    -1.491701    -0.456310
H     9.424093    -2.935810    0.516855
H     10.942477    -2.058391    0.729212
H     9.900188    0.824118    0.667181
H     11.043704    0.147206    1.827689
H     9.606722    0.984749    2.414895
H     7.719494    1.275330    1.187643
H     5.309514    1.463719    0.751432
C     -0.366320    -2.211487    0.297045
N     -0.544707    -3.351983    0.465839
C     -0.750939    -4.708675    0.669720
C     -2.052068    -5.189769    0.872054
C     -2.239595    -6.548672    1.079539
C     -1.163894    -7.459275    1.093483
C     -1.430847    -8.953619    1.331497
C     -2.110221    -9.132665    2.711349
C     -2.369614    -9.483325    0.219827
C     -0.136048    -9.789018    1.313801
C     0.124319    -6.939403    0.883686
C     0.342058    -5.580813    0.672991
H     -2.892941    -4.503873    0.865163
H     -3.251028    -6.908764    1.235103
H     -1.465184    -8.771847    3.520183
H     -2.313950    -10.193932    2.890099
H     -3.063522    -8.597626    2.774047
H     -1.915047    -9.368803    -0.770431
H     -3.333966    -8.964536    0.211430
H     -2.570064    -10.548310    0.379216
H     0.376711    -9.731172    0.346955
H     -0.379755    -10.841221    1.489958
H     0.562585    -9.479555    2.099295
H     0.982919    -7.599552    0.883558
H     1.344117    -5.196379    0.512610
C     -2.497765    0.274420    -0.423002
N     -3.628615    0.486799    -0.640642
C     -4.968499    0.744870    -0.904611
C     -5.313443    1.702116    -1.868286
C     -6.655494    1.950791    -2.121917
C     -7.683342    1.270137    -1.440068
C     -9.153700    1.585323    -1.759181
C     -9.426798    3.081522    -1.468518
C     -9.423536    1.292954    -3.255591
C     -10.128643    0.741681    -0.916800
C     -7.299867    0.317928    -0.481759
C     -5.960818    0.049563    -0.208221
H     -4.535422    2.236662    -2.403859
H     -6.908486    2.694384    -2.870460
H     -9.251499    3.317148    -0.412970
H     -10.470213    3.320355    -1.700689
H     -8.794231    3.740358    -2.072460
H     -9.245714    0.237617    -3.490185
H     -8.791284    1.897698    -3.913975
H     -10.467035    1.522838    -3.496201
H     -10.007200    -0.332004    -1.100409
H     -11.158443    1.002523    -1.180239
H     -10.010198    0.926641    0.156996
H     -8.053473    -0.231739    0.068655
H     -5.683666    -0.689944    0.536214
C     -0.299307    0.248618    2.090695
N     -0.422788    0.448908    3.233352
C     -0.544656    0.692223    4.593588
C     0.594173    0.628269    5.409065
C     0.462242    0.882812    6.766332
C     -0.779948    1.204835    7.349561
C     -0.862863    1.493316    8.856367
C     -0.363215    0.254733    9.639788
C     0.038052    2.709857    9.184340
C     -2.297745    1.814563    9.314658
C     -1.898478    1.253593    6.501026
C     -1.795877    1.002342    5.135388
H     1.559276    0.384633    4.976835
H     1.350714    0.831476    7.386621
H     -0.984666    -0.623403    9.431995
H     -0.407449    0.453524    10.715978
H     0.673406    0.002386    9.393978
H     -0.299559    3.606806    8.653161
H     1.084988    2.532492    8.916891
H     0.002239    2.920346    10.258734
H     -2.698323    2.705633    8.818012
H     -2.298472    2.014539    10.390611
H     -2.984152    0.978557    9.138048
H     -2.875382    1.493561    6.902626
H     -2.670620    1.047099    4.494613
C     0.274983    -0.467044    -2.115975
N     0.428431    -0.673569    -3.253858
C     0.603757    -0.923461    -4.607085
C     1.894432    -1.137267    -5.111157
C     2.051058    -1.389326    -6.466460
C     0.954311    -1.436976    -7.350651
C     1.187166    -1.724160    -8.842067
C     2.120885    -0.636687    -9.427908
C     1.854260    -3.113648    -8.990195
C     -0.125102    -1.724816    -9.649643
C     -0.322571    -1.216253    -6.807771
C     -0.509752    -0.961304    -5.452200
H     2.750904    -1.105227    -4.445433
H     3.054408    -1.553899    -6.844685
H     1.676486    0.360230    -9.332691
H     2.293881    -0.829817    -10.492111
H     3.097641    -0.620628    -8.933292
H     1.211884    -3.905674    -8.589516
H     2.818227    -3.165415    -8.473326
H     2.033999    -3.328595    -10.049128
H     -0.820098    -2.498337    -9.303933
H     0.095319    -1.931645    -10.701439
H     -0.633256    -0.754666    -9.608315
H     -1.196611    -1.242883    -7.446729
H     -1.503640    -0.794842    -5.049493
