29

Cr     -0.000175    -0.077681    -0.003139
N     0.003949    1.965837    0.001047
C     0.002580    3.120086    0.000929
C     0.000145    4.574073    -0.000624
H     -0.070118    4.943189    -1.028749
H     -0.853770    4.941805    0.577165
H     0.923771    4.944600    0.455307
N     2.045447    -0.068552    -0.003109
C     3.199721    -0.043063    -0.001475
C     4.653843    -0.006670    0.002423
H     5.004400    0.810797    -0.635646
H     5.018269    0.147696    1.022985
H     5.048900    -0.951861    -0.383031
N     -0.004471    -2.117904    -0.005645
C     -0.002740    -3.272213    -0.002480
C     0.000620    -4.726259    0.003446
H     0.808753    -5.096124    -0.635636
H     0.147885    -5.091940    1.024646
H     -0.954578    -5.098924    -0.379897
N     -2.045738    -0.060216    -0.002655
C     -3.199933    -0.038097    -0.001112
C     -4.654253    -0.007853    0.002178
H     -5.042906    -0.829024    -0.608324
H     -5.025577    -0.109735    1.026823
H     -5.004572    0.941212    -0.415994
N     0.000478    -0.086193    3.200873
C     0.000196    -0.083074    2.031830
N     0.000072    -0.073552    -3.206733
C     -0.000155    -0.074836    -2.037688
