25

Cr     0.019185    -0.141075    -0.022306
C     -0.128063    2.879382    -0.381623
O     0.468066    1.792871    -0.320947
H     -1.213494    2.950815    -0.229623
H     0.451542    3.788629    -0.588472
C     3.023735    -0.014475    -0.492275
O     1.958093    -0.610772    -0.271779
H     3.058555    1.075876    -0.618055
H     3.950469    -0.599335    -0.562005
C     0.185881    -3.152784    0.364214
O     -0.426208    -2.077130    0.270227
H     -0.387159    -4.070860    0.549333
H     1.278103    -3.205959    0.263113
C     -2.984333    -0.275884    0.435360
O     -1.919506    0.328158    0.234196
H     -3.911016    0.305526    0.528651
H     -3.019051    -1.370045    0.520544
N     0.295446    0.088524    2.062860
H     -0.305016    -0.519160    2.632887
H     0.106112    1.043268    2.390091
H     1.255057    -0.112967    2.368350
N     -0.311295    -0.361689    -2.100624
H     -0.390858    -1.344361    -2.387771
H     0.433740    0.033757    -2.686260
H     -1.177356    0.085635    -2.424365
