21

Cr     -0.008513    -0.126836    0.014211
C     0.217345    2.821864    -0.361455
O     -0.487125    1.818220    -0.304077
H     -0.251681    3.790570    -0.569447
H     1.301335    2.771188    -0.206664
C     2.929210    -0.310759    0.528954
O     1.938753    0.372416    0.286288
H     3.903336    0.181791    0.629455
H     2.860493    -1.398116    0.648074
C     -0.219018    -3.087711    0.263476
O     0.468248    -2.072642    0.329103
H     0.245218    -4.059391    0.468001
H     -1.282727    -3.042186    0.002706
C     -2.955270    0.052542    -0.458927
O     -1.954837    -0.629693    -0.258196
H     -2.898967    1.144867    -0.531238
H     -3.925521    -0.445867    -0.567662
N     -0.541488    0.264274    3.144662
C     -0.347518    0.122854    2.000574
N     0.537355    -0.519329    -3.115457
C     0.335014    -0.377263    -1.972987
