21

Cr     -0.003850    -0.111555    -0.005935
C     0.179245    2.828141    -0.498928
O     -0.500865    1.831956    -0.271269
H     -0.317846    3.799896    -0.599495
H     1.268568    2.766334    -0.603994
C     2.939226    -0.340262    -0.385558
O     1.932617    0.360214    -0.324630
H     3.907012    0.134585    -0.583345
H     2.891188    -1.426028    -0.243029
C     -0.185913    -3.051543    0.488395
O     0.493552    -2.055162    0.259907
H     0.311564    -4.022918    0.590934
H     -1.275323    -2.990451    0.592478
C     -2.946697    0.117190    0.376878
O     -1.939768    -0.582677    0.314369
H     -3.913073    -0.358549    0.579486
H     -2.899805    1.202699    0.231337
N     0.407775    0.409861    3.111921
C     0.256323    0.218858    1.967401
N     -0.415369    -0.633670    -3.123699
C     -0.263267    -0.442959    -1.979207
