25

Cr     0.004080    -0.029775    0.023737
P     -0.255170    2.530375    -0.347805
H     -0.395446    3.001024    -1.673068
H     -1.330350    3.182970    0.293712
S     1.437953    3.516327    0.517133
S     2.953362    2.431914    -0.472693
P     2.539058    0.491628    0.334283
H     3.060801    0.450642    1.646805
H     3.473476    -0.307882    -0.359485
P     0.391916    -2.541590    0.579663
H     1.512186    -3.180816    0.005393
H     -0.640573    -3.454083    0.265869
S     0.809237    -2.722958    2.672728
S     -0.878166    -1.691314    3.408116
P     -0.460383    0.236627    2.574407
H     0.545036    0.837391    3.364588
H     -1.599869    0.970715    2.969630
P     -2.520681    -0.462899    -0.450937
H     -3.402369    0.640098    -0.494678
H     -3.202746    -1.334033    0.426159
S     -2.690303    -1.491051    -2.321469
S     -1.558865    -0.156638    -3.499364
P     0.331659    -0.427798    -2.530377
H     0.855480    -1.663818    -2.970578
H     1.151457    0.488617    -3.224303
