19
03/24/2023 16:57, XYZ structure generated by mol3D Class, molSimplify
Cr     0.088460    -0.179210    0.299784
O     0.444331    1.728068    0.742882
P     0.272855    3.183416    0.248591
H     -0.392950    2.977744    -1.016108
O     2.015353    -0.613293    0.586769
P     3.362484    0.155488    0.566298
H     4.245564    -0.936404    0.867901
O     -0.267039    -2.086533    -0.143587
P     -0.096383    -3.541909    0.350940
H     0.567375    -3.336295    1.616723
O     -1.838310    0.254708    0.013210
P     -3.185673    -0.513674    0.033361
H     -4.068475    0.578729    -0.267194
O     -0.271158    -0.575848    2.217145
P     -0.111232    -0.102525    3.679786
H     0.626300    1.126834    3.495156
O     0.447990    0.217806    -1.617534
P     0.288868    -0.255877    -3.080167
H     -0.446860    -1.486296    -2.895505
