27

Cr     0.002007    0.002992    0.000203
C     0.465568    3.160446    0.508271
N     0.300918    2.031195    0.337051
C     0.671816    4.585772    0.721401
H     0.651057    5.111473    -0.238162
H     1.641289    4.752864    1.200897
H     -0.116850    4.982452    1.368180
C     3.157340    -0.515346    0.468405
N     2.031487    -0.329601    0.296348
C     4.577324    -0.751432    0.685883
H     5.059622    0.172015    1.021196
H     5.046691    -1.081226    -0.246071
H     4.712653    -1.521366    1.451733
C     -0.466247    -3.153206    -0.513295
N     -0.297437    -2.025242    -0.337677
C     -0.679611    -4.576429    -0.733363
H     0.280281    -5.101819    -0.714877
H     -1.153585    -4.735370    -1.706842
H     -1.323197    -4.981694    0.053509
C     -3.153871    0.512731    -0.473954
N     -2.027568    0.334516    -0.296957
C     -4.574515    0.736502    -0.699972
H     -5.156761    -0.052041    -0.213269
H     -4.785152    0.731037    -1.773838
H     -4.869040    1.704075    -0.281789
F     -0.282086    -0.268746    1.744987
F     0.285857    0.274499    -1.744775
