33

Cr     0.001855    -0.032397    -0.003132
N     0.282838    1.935995    0.318880
C     0.444042    3.077950    0.459278
C     0.643548    4.502934    0.638260
H     1.679948    4.767670    0.394821
H     -0.033195    5.058829    -0.022622
H     0.435316    4.779865    1.679334
N     1.972341    -0.355576    0.305554
C     3.119712    -0.531602    0.352059
C     4.552220    -0.749987    0.410343
H     5.057137    -0.083927    -0.300580
H     4.923472    -0.542609    1.421548
H     4.781388    -1.791005    0.151155
N     -0.279071    -2.001365    -0.323874
C     -0.440216    -3.143982    -0.458904
C     -0.640171    -4.569790    -0.630278
H     0.064866    -4.957993    -1.375871
H     -0.474631    -5.085410    0.323921
H     -1.665340    -4.765233    -0.967961
N     -1.968629    0.287204    -0.312562
C     -3.117417    0.452894    -0.360368
C     -4.551230    0.659866    -0.422245
H     -5.012829    -0.109016    -1.053920
H     -4.976716    0.596566    0.587287
H     -4.768997    1.649697    -0.842221
C     0.148116    -0.252146    3.017438
O     -0.408835    -0.344509    1.922066
H     -0.415396    -0.522869    3.918663
H     1.185358    0.092545    3.113902
C     -0.156599    0.181569    -3.018317
O     0.409847    0.280812    -1.928167
H     0.398202    0.449992    -3.925754
H     -1.193604    -0.167871    -3.104254
