21

Cr     -0.053641    -0.017099    0.052001
S     0.362534    2.551332    0.195886
H     1.614549    2.737913    -0.283231
H     -0.264583    3.091860    -0.875035
S     2.471192    -0.358659    0.495826
H     2.528779    -1.292492    1.474991
H     2.921027    -1.192233    -0.471887
S     -0.406896    -2.542981    0.391332
H     -1.729055    -2.782553    0.228844
H     -0.045302    -3.138207    -0.769453
S     -2.524818    0.592252    -0.395863
H     -3.245114    0.156141    0.663903
H     -2.978895    -0.361626    -1.241503
P     -0.411152    0.250180    2.673574
H     -0.672265    -0.921838    3.410375
H     -1.463589    1.111206    3.042069
H     0.691741    0.814186    3.345740
P     0.349231    -0.071439    -2.556329
H     1.462093    0.674366    -2.992711
H     -0.691362    0.459036    -3.345438
H     0.571497    -1.327398    -3.154862
