31

Cr     0.000489    -0.000601    0.000368
O     -0.611617    1.832767    -0.456228
N     0.051995    2.871724    0.208892
H     0.279317    2.567268    1.173338
H     0.925921    3.108022    -0.282905
H     -0.547337    3.709984    0.230463
O     1.833860    0.456823    -0.611265
N     2.872807    -0.208740    0.051970
H     3.710992    -0.230386    -0.547463
H     3.109327    0.282833    0.925957
H     2.568088    -1.173153    0.279115
O     0.612231    -1.833938    0.457620
N     -0.051488    -2.872780    -0.207536
H     -0.278088    -2.568415    -1.172186
H     0.547328    -3.711428    -0.228457
H     -0.925893    -3.108328    0.283776
O     -1.832832    -0.458433    0.611661
N     -2.871817    0.207108    -0.051383
H     -3.107457    -0.283502    -0.926172
H     -3.710394    0.227224    0.547554
H     -2.567686    1.171985    -0.277320
O     0.457521    0.611007    1.833807
N     -0.207349    -0.053101    2.872595
H     -0.228973    0.545878    3.711112
H     -1.171816    -0.280407    2.568182
H     0.284548    -0.927084    3.108469
O     -0.456528    -0.612337    -1.833160
N     0.209116    0.050777    -2.872043
H     1.173363    0.278374    -2.567082
H     0.231432    -0.548946    -3.710006
H     -0.282537    0.924558    -3.109203
