45

Cr     -0.001495    -0.034377    -0.252941
C     -0.318302    -0.373306    1.913596
O     -0.476094    -0.540355    3.016348
C     0.311056    0.304368    -2.299764
N     0.486438    0.498794    -3.426519
C     0.700904    0.745660    -4.828309
H     0.427670    -0.154960    -5.385551
H     1.757500    0.983124    -4.982020
H     0.071532    1.587603    -5.130681
O     0.103279    1.968910    0.055297
C     -0.627510    2.656949    1.081479
C     -0.024612    3.832922    1.327922
C     1.128215    3.936216    0.460309
C     1.193459    2.817271    -0.285065
H     -1.548166    2.188920    1.389560
H     -0.365469    4.579201    2.035326
H     1.852033    2.450954    -1.055350
H     1.809998    4.775420    0.395146
O     1.993708    -0.202806    -0.001591
C     2.678438    0.289707    1.159932
C     3.841103    -0.373839    1.286065
C     3.936391    -1.326198    0.201408
C     2.826221    -1.216980    -0.552284
H     2.222692    1.136744    1.647921
H     4.585431    -0.200251    2.053860
H     2.453652    -1.697537    -1.442115
H     4.765439    -1.996703    0.009464
O     -0.128022    -2.033112    -0.662757
C     0.221478    -3.032750    0.306471
C     -0.453514    -4.162104    0.024341
C     -1.271485    -3.916124    -1.142442
C     -1.072705    -2.642095    -1.531521
H     1.016862    -2.770783    0.986420
H     -0.365960    -5.099002    0.561412
H     -1.445392    -2.024341    -2.332343
H     -1.910327    -4.634958    -1.641238
O     -2.005209    0.104861    -0.522993
C     -2.705861    1.233294    -1.028860
C     -3.988004    1.171254    -0.622886
C     -4.146874    -0.019023    0.184033
C     -2.959481    -0.647794    0.240265
H     -2.128583    1.913763    -1.632940
H     -4.766234    1.879041    -0.882384
H     -2.610917    -1.593180    0.625008
H     -5.063946    -0.363640    0.646710
