33

Cr     -0.078018    -0.068234    0.123284
C     0.359774    3.015352    -0.468472
N     0.201038    1.885775    -0.247895
C     0.558537    4.424053    -0.744596
H     0.312956    4.634808    -1.793327
H     1.605316    4.695380    -0.559539
H     -0.089954    5.026041    -0.095918
C     2.997677    -0.587306    -0.425438
N     1.870623    -0.394977    -0.217113
C     4.402646    -0.826263    -0.686585
H     4.942828    0.127995    -0.721816
H     4.518789    -1.340273    -1.649482
H     4.827784    -1.452771    0.107624
C     -0.547344    -3.176763    0.535140
N     -0.374355    -2.037000    0.390218
C     -0.763782    -4.598620    0.712841
H     0.200187    -5.121682    0.740349
H     -1.360594    -4.989426    -0.121236
H     -1.299486    -4.779365    1.653115
C     -3.186121    0.422539    0.484810
N     -2.044642    0.243918    0.359904
C     -4.609510    0.644048    0.640284
H     -4.996534    0.021603    1.456791
H     -5.129444    0.380080    -0.289731
H     -4.799953    1.699836    0.870060
C     0.430357    0.380321    3.197656
N     0.241227    0.217567    2.063178
C     0.666467    0.581686    4.613458
H     -0.290902    0.625881    5.147636
H     1.209570    1.521855    4.770683
H     1.262080    -0.248919    5.012413
C     -0.427484    -0.379561    -1.987953
O     -0.609180    -0.547277    -3.085271
