29

Cr     -0.003274    -0.056976    0.007733
C     0.154745    2.908394    0.494321
O     -0.485880    1.874685    0.269251
H     -0.391335    3.855438    0.588817
H     1.246562    2.897027    0.601349
C     2.976491    -0.247171    0.367697
O     1.922780    0.399590    0.333494
H     3.912010    0.282410    0.587706
H     2.994028    -1.328189    0.180333
C     -0.163623    -3.023231    -0.471793
O     0.479136    -1.988947    -0.255392
H     0.381326    -3.970798    -0.567083
H     -1.256271    -3.011644    -0.570273
C     -2.977202    0.141777    -0.382727
O     -1.930404    -0.513291    -0.311447
H     -2.984351    1.231283    -0.252955
H     -3.917557    -0.389137    -0.577093
N     -0.281953    -0.378580    1.985020
C     -0.437083    -0.565084    3.122543
C     -0.629249    -0.799608    4.539401
H     -1.663492    -1.115599    4.727505
H     0.054965    -1.586713    4.882058
H     -0.427254    0.121949    5.100528
N     0.275465    0.262656    -1.969838
C     0.430507    0.442387    -3.108432
C     0.623176    0.667017    -4.526861
H     1.651433    0.406105    -4.808600
H     -0.075832    0.044703    -5.100513
H     0.441903    1.723347    -4.763909
