21

Cr     0.034269    -0.028307    0.542112
C     0.437805    2.883585    0.170025
O     0.353056    1.921616    0.936734
H     0.615444    3.879912    0.592828
H     0.338826    2.764601    -0.917711
C     2.741516    -0.436558    -0.626304
O     2.018896    -0.323071    0.366614
H     2.335053    -0.365146    -1.644419
H     3.814912    -0.609178    -0.481744
C     -0.536212    -2.705261    -0.636473
O     -0.276714    -2.016479    0.351840
H     -0.662628    -3.786975    -0.505265
H     -0.644812    -2.264276    -1.637199
C     -2.895432    0.480245    0.309871
O     -1.909369    0.241146    1.010430
H     -2.813256    0.593080    -0.779631
H     -3.874293    0.582458    0.793938
O     0.316311    -0.396906    2.563811
H     -0.353790    -0.231782    3.250889
H     1.192549    -0.426474    2.987292
F     -0.232144    0.243788    -1.164241
