21

Cr     -0.210423    -0.204710    0.092484
S     0.064263    2.344526    -0.315060
H     -0.776392    2.859414    0.613121
H     1.182006    2.706672    0.356668
S     2.288398    -0.668294    0.601321
H     2.963514    0.487783    0.403371
H     2.721577    -1.242247    -0.544599
S     -0.703182    -2.746236    0.380675
H     0.078421    -3.299376    -0.575399
H     0.058691    -3.166095    1.417840
S     -2.804493    -0.019226    -0.194440
H     -3.038194    -0.728264    -1.323540
H     -3.043163    1.179149    -0.779044
C     -0.417586    -0.084018    3.211126
O     -0.589470    0.161239    2.007574
H     -0.991044    0.485293    3.954652
H     0.292800    -0.850208    3.550510
C     0.165623    -0.130808    -2.980420
O     0.103295    -0.600587    -1.833056
H     0.381020    -0.809808    -3.816220
H     0.014106    0.938806    -3.181100
