25

Cr     0.030245    -0.040880    -0.041923
N     0.363995    1.991556    0.219317
H     -0.326845    2.749281    0.245277
C     1.590398    2.349401    0.365270
H     1.905250    3.384740    0.512266
C     2.583848    1.236592    0.322830
H     3.653352    1.427865    0.433400
N     2.086638    0.061826    0.152614
H     2.768742    -0.704545    0.125125
N     -0.169359    -2.098506    0.072415
H     -0.141476    -2.786000    -0.689071
C     -0.341035    -2.588084    1.249654
H     -0.451796    -3.656463    1.447329
C     -0.385368    -1.589229    2.358695
H     -0.534432    -1.901865    3.394506
N     -0.238785    -0.364116    1.998813
H     -0.265857    0.327585    2.755674
N     -2.001678    0.224231    -0.403196
H     -2.766065    0.266053    0.279409
C     -2.345935    0.346442    -1.635855
H     -3.377234    0.489561    -1.965379
C     -1.220886    0.281343    -2.614224
H     -1.396725    0.371104    -3.688256
N     -0.053614    0.117696    -2.096784
H     0.721922    0.075649    -2.767695
