25

Cr     -0.035137    0.034321    0.039530
N     0.066517    2.101386    -0.131731
H     -0.698156    2.784682    -0.095122
C     1.241307    2.597532    -0.297777
H     1.433595    3.668180    -0.396008
C     2.358002    1.606204    -0.352767
H     3.391331    1.929614    -0.496320
N     2.009293    0.376522    -0.223295
H     2.771243    -0.308956    -0.259145
N     0.232909    -2.010854    0.372704
H     0.271464    -2.770420    -0.315302
C     0.364345    -2.363243    1.601191
H     0.511648    -3.397231    1.920855
C     0.306496    -1.250728    2.597041
H     0.405230    -1.447738    3.666794
N     0.137637    -0.074130    2.106262
H     0.098902    0.687220    2.793130
N     -2.101706    -0.143241    -0.067218
H     -2.787657    -0.108561    0.695155
C     -2.593539    -0.311453    -1.243485
H     -3.663186    -0.413407    -1.439406
C     -1.598853    -0.363687    -2.357300
H     -1.919203    -0.509201    -3.391323
N     -0.370425    -0.229543    -2.005822
H     0.316931    -0.263780    -2.766180
