33

Cr     -0.005018    -0.096990    -0.033480
N     -0.326708    1.863796    0.274729
C     -0.508344    2.994853    0.473137
C     -0.735424    4.404542    0.726018
H     -0.513002    4.634078    1.775813
H     -0.085469    5.009957    0.081914
H     -1.782669    4.656153    0.518099
N     1.967754    0.197075    0.259838
C     3.105864    0.360243    0.431441
C     4.525887    0.560991    0.647454
H     4.921423    1.263694    -0.096611
H     4.695173    0.970094    1.651420
H     5.055192    -0.395493    0.555444
N     0.311928    -2.060683    -0.338252
C     0.483389    -3.195114    -0.527414
C     0.696309    -4.608890    -0.769375
H     1.426054    -4.741803    -1.577833
H     1.077717    -5.090930    0.139479
H     -0.249522    -5.083824    -1.058470
N     -1.977814    -0.382004    -0.332207
C     -3.116547    -0.532002    -0.510754
C     -4.537036    -0.719227    -0.735999
H     -4.694035    -1.482221    -1.508499
H     -5.023035    -1.043936    0.192661
H     -4.989818    0.223805    -1.066533
P     -0.336771    -0.567190    2.467676
H     -1.340346    -1.502663    2.778754
H     -0.689037    0.535424    3.267545
H     0.782874    -1.087328    3.142337
P     0.372307    0.344131    -2.532681
H     0.988720    1.570712    -2.840159
H     -0.768783    0.360620    -3.355682
H     1.205767    -0.583673    -3.183828
