21

Cr     0.002608    0.040891    -0.002195
N     0.002699    2.003716    0.033211
C     0.001964    3.198249    0.012047
O     0.001010    4.400242    -0.005386
N     1.975540    0.042247    -0.074311
C     3.169668    0.046738    -0.029071
O     4.371172    0.049915    0.009956
N     0.002695    -1.948242    -0.033603
C     -0.020299    -3.143375    -0.013220
O     -0.039985    -4.345194    0.004929
N     -1.972376    0.039201    0.071462
C     -3.166832    0.057535    0.031870
O     -4.368264    0.072536    -0.002283
P     0.004791    -0.118671    2.480810
H     -0.711875    -1.188165    3.060881
H     -0.520947    0.929022    3.273134
H     1.225244    -0.297834    3.173592
P     -0.007703    -0.076903    -2.484967
H     0.274236    1.064290    -3.273642
H     -1.177936    -0.498694    -3.157783
H     0.904915    -0.968842    -3.089298
