27

Cr     -0.093308    -0.091321    0.018297
N     -0.340795    2.013234    0.289508
H     -1.324113    2.305911    0.331731
H     0.075966    2.394139    1.147842
H     0.062092    2.570158    -0.473820
N     2.004408    0.110610    0.368239
H     2.296593    1.080432    0.537820
H     2.396137    -0.422616    1.154453
H     2.556293    -0.178713    -0.448274
N     0.187180    -2.196090    -0.229415
H     1.045927    -2.564863    0.197079
H     -0.562188    -2.793233    0.142145
H     0.261600    -2.454267    -1.220534
N     -2.167430    -0.286139    -0.434355
H     -2.398432    -1.183040    -0.878322
H     -2.795575    -0.233542    0.377072
H     -2.518372    0.418483    -1.094188
N     -0.444300    -0.336796    2.119180
H     -1.254394    0.177382    2.487189
H     -0.615296    -1.313304    2.387758
H     0.336074    -0.041672    2.718515
C     0.231960    0.205134    -2.063656
N     0.406210    0.370754    -3.197512
C     0.624031    0.575710    -4.607754
H     0.019472    -0.149456    -5.161145
H     1.687370    0.428056    -4.820187
H     0.322661    1.596766    -4.861218
