23

Cr     -0.030139    -0.081586    -0.009403
C     0.142348    2.903177    -0.499446
O     -0.458387    1.834012    -0.302647
H     1.238962    2.952838    -0.518768
H     -0.446419    3.816583    -0.653827
C     2.974319    -0.211530    0.429265
O     1.892095    0.367056    0.244767
H     3.040375    -1.306393    0.481507
H     3.882905    0.393549    0.544898
C     -0.210125    -3.090217    0.350073
O     0.378921    -1.998172    0.305686
H     -1.289209    -3.168031    0.162740
H     0.369851    -3.993656    0.579084
C     -3.031866    0.072452    -0.318243
O     -1.945353    -0.527485    -0.275115
H     -3.949046    -0.510438    -0.472951
H     -3.090914    1.162968    -0.208216
S     -0.555864    0.301088    2.476108
H     0.059275    -0.738486    3.085069
H     0.379677    1.207447    2.841388
S     0.459359    -0.286245    -2.526169
H     -0.761624    -0.540059    -3.050392
H     0.898941    -1.558178    -2.663413
