21

Cr     -0.031737    -0.020275    -0.032228
S     0.395528    2.526332    -0.191369
H     -0.290421    3.092402    0.829394
H     1.621699    2.732146    0.344261
S     2.469336    -0.366415    -0.469625
H     2.909627    -1.206435    0.496840
H     2.531147    -1.294442    -1.453993
S     -0.370236    -2.524528    -0.344325
H     -0.096788    -3.111281    0.845179
H     -1.702436    -2.754402    -0.278000
S     -2.483331    0.562856    0.420323
H     -2.926954    -0.389754    1.273262
H     -3.203866    0.115478    -0.634686
P     0.375019    -0.004330    2.544009
H     0.300349    -1.235452    3.224475
H     -0.512081    0.808123    3.277903
H     1.632719    0.491215    2.942558
P     -0.408775    0.244709    -2.626116
H     -0.778100    -0.899766    -3.359937
H     0.723073    0.718480    -3.318886
H     -1.393627    1.190067    -2.974728
