27

Cr     -0.093211    -0.093792    0.001191
N     -0.340005    2.016857    0.269249
H     -1.323640    2.308014    0.312894
H     0.078433    2.398256    1.126538
H     0.060522    2.572991    -0.495682
N     2.014002    0.120591    0.323737
H     2.307251    1.098213    0.435179
H     2.404894    -0.365220    1.140443
H     2.564315    -0.219642    -0.473823
N     0.193403    -2.202710    -0.242449
H     1.044673    -2.570835    0.199306
H     -0.561977    -2.801051    0.114050
H     0.285167    -2.457912    -1.232934
N     -2.175690    -0.302753    -0.440944
H     -2.401943    -1.195469    -0.895224
H     -2.801095    -0.263278    0.373022
H     -2.532241    0.407836    -1.091177
N     -0.458238    -0.347495    2.103762
H     -1.250913    0.189371    2.476975
H     -0.658426    -1.320364    2.364792
H     0.332992    -0.082111    2.702692
C     0.237955    0.213783    -2.090786
N     0.411048    0.382144    -3.224150
C     0.625904    0.590724    -4.634643
H     -0.013929    -0.102551    -5.189032
H     1.680071    0.399666    -4.857484
H     0.366628    1.626084    -4.876011
