57

Cr     -0.011526    -0.010497    0.006327
C     0.045581    -0.173472    2.148085
N     0.103021    -0.219707    3.304967
C     0.186923    -0.263354    4.738412
H     0.767010    -1.141940    5.031531
H     -0.823031    -0.324378    5.151588
H     0.680827    0.647107    5.087522
C     0.008060    0.216117    -2.130668
N     0.053022    0.358476    -3.280303
C     0.115826    0.542726    -4.704076
H     -0.591604    -0.139884    -5.181527
H     1.132262    0.327146    -5.043802
H     -0.146292    1.577987    -4.936774
C     -0.058708    4.893880    0.445902
C     0.827089    4.121869    1.201693
C     0.811318    2.740737    1.056714
N     -0.038717    2.102366    0.214336
C     -0.901304    2.858384    -0.510700
C     -0.936534    4.244180    -0.425310
H     -0.065201    5.976715    0.533307
H     1.526783    4.579196    1.893854
H     1.498008    2.119602    1.618376
H     -1.581592    2.327383    -1.165720
H     -1.643312    4.801953    -1.031587
C     4.907119    -0.061278    -0.096969
C     4.200431    -0.979454    0.683097
C     2.812641    -0.927733    0.693984
N     2.108994    -0.013909    -0.020389
C     2.803094    0.879242    -0.769397
C     4.190110    0.883755    -0.834677
H     5.992188    -0.080895    -0.128699
H     4.713263    -1.731030    1.274850
H     2.238434    -1.638762    1.276114
H     2.221583    1.610585    -1.317971
H     4.695026    1.617127    -1.455326
C     -0.093888    -4.911113    -0.416840
C     -0.903369    -4.256414    0.514421
C     -0.847872    -2.871822    0.601716
N     -0.029069    -2.121858    -0.178009
C     0.758450    -2.764150    -1.075863
C     0.750230    -4.145106    -1.224533
H     -0.122099    -5.992970    -0.511539
H     -1.575477    -4.808032    1.163399
H     -1.475907    -2.334931    1.302468
H     1.412303    -2.147131    -1.680439
H     1.395968    -4.607727    -1.963225
C     -4.928230    -0.093767    0.013953
C     -4.201733    -0.789424    -0.955535
C     -2.814365    -0.741125    -0.923362
N     -2.129041    -0.035490    0.011092
C     -2.841306    0.640888    0.946908
C     -4.229881    0.631432    0.982081
H     -6.013827    -0.116407    0.016574
H     -4.699247    -1.367257    -1.727283
H     -2.226189    -1.282179    -1.655180
H     -2.274831    1.207026    1.676872
H     -4.751390    1.186230    1.755208
