21

Cr     -0.010977    -0.204897    -0.033286
N     0.061415    1.887256    0.368418
H     -0.718415    2.208104    0.945663
H     0.052185    2.435238    -0.495135
H     0.898893    2.143457    0.894922
N     2.099010    -0.226610    -0.344927
H     2.563866    0.669652    -0.187113
H     2.306281    -0.483130    -1.312401
H     2.566567    -0.890805    0.274809
N     -0.048842    -2.317264    -0.314926
H     0.747361    -2.782325    0.125526
H     -0.044132    -2.553072    -1.309833
H     -0.873093    -2.757312    0.098625
N     -2.125791    -0.159214    0.209650
H     -2.391139    -0.232033    1.194726
H     -2.596126    -0.913868    -0.293097
H     -2.534334    0.700167    -0.163285
N     0.431645    -0.712246    3.109165
C     0.266225    -0.527125    1.966989
N     -0.421663    0.257219    -3.190307
C     -0.285064    0.104298    -2.039429
