25

Fe     -0.008110    -0.011234    0.023780
N     -0.225355    2.066548    0.227076
H     -1.110230    2.423664    -0.141804
H     -0.207232    2.379157    1.201588
H     0.492642    2.624127    -0.242712
N     2.032663    0.151911    0.498171
H     2.291493    1.084832    0.829812
H     2.354972    -0.487062    1.230191
H     2.657376    -0.017303    -0.293729
N     0.207689    -2.095796    -0.145249
H     1.172954    -2.402644    -0.001029
H     -0.346580    -2.651157    0.512171
H     -0.036466    -2.462422    -1.068423
N     -2.054114    -0.204727    -0.402707
H     -2.287878    -1.112849    -0.811617
H     -2.644717    -0.139853    0.430574
H     -2.442260    0.481247    -1.055090
N     -0.424042    -0.208452    2.073786
H     -1.209497    0.356384    2.409053
H     -0.653370    -1.164876    2.355742
H     0.361211    0.054294    2.675305
P     0.433670    0.282951    -2.347717
H     1.741380    0.583636    -2.790493
H     0.155315    -0.771610    -3.245972
H     -0.251388    1.313766    -3.028912
