31

Fe     -0.015037    -0.243141    -0.126915
P     0.391844    2.004984    -0.454831
H     -0.655492    2.949670    -0.430571
C     1.765320    2.892719    -0.740664
H     2.746655    2.432557    -0.814826
H     1.718885    3.972112    -0.863671
P     2.236251    -0.616211    0.280791
H     2.771977    -0.485013    1.578904
C     3.512004    -1.111334    -0.660606
H     3.410781    -1.303239    -1.724871
H     4.499844    -1.255282    -0.229192
P     -0.409504    -2.503270    0.221297
H     0.534933    -3.487656    -0.138024
C     -1.683703    -3.334855    0.886460
H     -2.571446    -2.832432    1.261250
H     -1.663978    -4.418726    0.972162
P     -2.271988    0.079015    -0.529315
H     -2.962210    -0.680008    -1.497343
C     -3.401570    1.120109    0.099874
H     -3.160394    1.836450    0.880854
H     -4.428776    1.115495    -0.256876
P     -0.379421    0.154494    2.121355
H     -1.261606    -0.647724    2.874234
C     0.215033    1.275729    3.191143
H     0.927423    2.040628    2.894189
H     -0.092599    1.273021    4.234108
P     0.272836    -0.668842    -2.392014
H     -0.102629    -1.905365    -2.961226
C     0.844077    0.223774    -3.670811
H     1.205807    1.240764    -3.551921
H     0.867356    -0.192495    -4.675115
