29

Fe     -0.000198    -0.000998    0.000533
P     0.378696    2.314097    0.298779
H     -0.019251    2.875983    1.528891
H     -0.273995    3.188481    -0.593530
H     1.685491    2.841741    0.220396
P     2.304720    -0.328433    -0.430704
H     2.796489    -1.606441    -0.772823
H     3.197300    -0.012037    0.613159
H     2.874497    0.422043    -1.479119
P     -0.377855    -2.317113    -0.292304
H     -1.675375    -2.854441    -0.150717
H     0.324681    -3.193736    0.559134
H     -0.039450    -2.867174    -1.545294
P     -2.307258    0.326558    0.423151
H     -2.825517    1.624889    0.617798
H     -2.847485    -0.309511    1.558966
H     -3.203060    -0.130046    -0.564639
N     0.322976    -0.291334    1.919777
C     0.515453    -0.460292    3.050740
C     0.756063    -0.672582    4.472502
H     -0.193284    -0.656821    5.018438
H     1.240942    -1.642031    4.629321
H     1.405223    0.117780    4.864285
N     -0.323577    0.290275    -1.918810
C     -0.515321    0.461441    -3.049624
C     -0.754309    0.678087    -4.470892
H     -1.710396    0.230468    -4.762798
H     -0.783887    1.751704    -4.685550
H     0.047714    0.219409    -5.059117
