37

Fe     0.004432    -0.001935    -0.006298
C     0.542048    3.276947    -0.477654
N     0.369370    2.144834    -0.308798
C     0.758795    4.702005    -0.689216
H     0.529675    4.965074    -1.726767
H     1.803112    4.954722    -0.479622
H     0.111712    5.280932    -0.022545
C     3.280336    -0.477056    0.542413
N     2.151618    -0.300474    0.355788
C     4.700752    -0.699211    0.778158
H     5.235985    0.255360    0.751501
H     5.109424    -1.358594    0.005845
H     4.848334    -1.162969    1.758688
C     -0.535709    -3.276654    0.494828
N     -0.364036    -2.144342    0.326357
C     -0.750629    -4.701969    0.706548
H     0.207966    -5.230191    0.685907
H     -1.395254    -5.103188    -0.082019
H     -1.228529    -4.867803    1.677280
C     -3.275591    0.485526    -0.523473
N     -2.147317    0.304662    -0.338348
C     -4.695518    0.714080    -0.756154
H     -5.289260    0.053561    -0.116195
H     -4.940169    0.510701    -1.803532
H     -4.948100    1.754097    -0.526161
C     -0.483066    0.533953    3.275048
N     -0.314166    0.350854    2.144825
C     -0.696444    0.764701    4.698197
H     -1.735938    0.542764    4.959864
H     -0.484245    1.810332    4.942750
H     -0.035614    0.119798    5.285904
C     0.315783    -0.364711    -2.180556
N     0.479084    -0.550451    -3.316557
C     0.679804    -0.777879    -4.713187
H     -0.110013    -1.434368    -5.086314
H     1.653650    -1.249500    -4.864817
H     0.645168    0.177788    -5.241696
