49

Fe     -0.008533    0.012166    -0.006279
C     -0.096354    0.080847    1.979111
N     -0.126105    0.109954    3.139334
C     -0.151087    0.146367    4.571396
H     0.642204    -0.498327    4.957878
H     -1.123688    -0.207536    4.921814
H     0.012516    1.174747    4.901591
C     0.123463    -0.081712    -1.985615
N     0.239374    -0.152591    -3.138438
C     0.400267    -0.240042    -4.558965
H     0.154697    -1.254222    -4.882796
H     1.437722    -0.008583    -4.812123
H     -0.269570    0.477311    -5.038778
O     -0.012448    2.083172    -0.073426
C     -0.853026    2.938898    0.646095
C     -0.610009    4.215689    0.280468
C     0.431358    4.185977    -0.714188
C     0.767377    2.892127    -0.905363
H     -1.539523    2.461782    1.324823
H     -1.109919    5.092294    0.668943
H     1.494834    2.378068    -1.510806
H     0.870512    5.036625    -1.216764
O     2.063466    0.017121    0.082662
C     2.857919    0.856644    0.869078
C     4.156626    0.522935    0.708935
C     4.204222    -0.579429    -0.217152
C     2.932622    -0.858980    -0.575313
H     2.330909    1.616774    1.421072
H     4.998913    1.003396    1.187838
H     2.466947    -1.590546    -1.214166
H     5.089050    -1.094117    -0.565490
O     -0.015763    -2.059600    0.062792
C     0.728910    -2.869737    0.924967
C     0.407851    -4.163757    0.710282
C     -0.586492    -4.191571    -0.331833
C     -0.819367    -2.913233    -0.699569
H     1.422147    -2.355567    1.569367
H     0.827074    -5.016224    1.226801
H     -1.477246    -2.432163    -1.403859
H     -1.063103    -5.068565    -0.747875
O     -2.072601    0.022375    -0.106371
C     -2.952070    -0.751427    0.657085
C     -4.222907    -0.456633    0.308412
C     -4.163151    0.548216    -0.721893
C     -2.858666    0.813157    -0.949335
H     -2.492089    -1.441755    1.343847
H     -5.115142    -0.900002    0.728264
H     -2.320681    1.488533    -1.593123
H     -5.001934    1.010865    -1.223401
