29

Fe     0.000581    0.000379    -0.000522
P     -0.438572    2.658066    0.348421
H     -1.233933    3.052340    1.446284
H     -1.125313    3.360143    -0.665973
H     0.631067    3.561357    0.534438
P     2.643001    0.383636    0.474518
H     3.347826    1.244769    -0.394431
H     3.556121    -0.693756    0.480738
H     3.016345    0.976640    1.700208
P     0.438552    -2.655717    -0.362010
H     -0.590487    -3.514330    -0.807769
H     0.866117    -3.410178    0.752114
H     1.442151    -3.048729    -1.274180
P     -2.644469    -0.383470    -0.463955
H     -3.572366    0.676051    -0.358841
H     -3.323899    -1.330922    0.332456
H     -3.028408    -0.867518    -1.733428
N     -0.335634    -0.324151    2.095591
C     -0.515993    -0.498522    3.228073
C     -0.741172    -0.716356    4.648514
H     -0.721106    0.241861    5.178934
H     -1.716400    -1.191007    4.802031
H     0.041814    -1.366713    5.053454
N     0.337055    0.323579    -2.096967
C     0.518084    0.497458    -3.229452
C     0.744086    0.714654    -4.649841
H     -0.038736    1.364735    -5.055535
H     1.719346    1.189366    -4.802961
H     0.724500    -0.243827    -5.179807
