35

Fe     0.050082    0.041273    0.162982
C     0.380051    2.247060    0.457745
N     0.571607    3.381568    0.621965
C     0.804776    4.778356    0.825670
H     1.464236    5.150013    0.037728
H     1.273009    4.924091    1.802049
H     -0.150389    5.307806    0.789841
C     2.255151    -0.315122    0.425459
N     3.396692    -0.476770    0.571807
C     4.801593    -0.677120    0.753071
H     5.178041    -1.315382    -0.049946
H     4.972689    -1.156459    1.719871
H     5.307212    0.291096    0.724233
C     -0.249758    -2.149669    -0.252252
N     -0.424312    -3.279857    -0.459314
C     -0.637922    -4.671700    -0.712029
H     -1.078957    -4.791910    -1.704466
H     -1.314000    -5.073233    0.046557
H     0.321205    -5.193267    -0.667385
C     -2.134941    0.412181    -0.221582
N     -3.270001    0.574106    -0.412059
C     -4.667976    0.772617    -0.642636
H     -4.971596    1.723136    -0.197361
H     -5.225541    -0.046845    -0.182778
H     -4.854760    0.790832    -1.719061
C     -0.313948    -0.267909    2.339299
N     -0.503718    -0.429762    3.474675
C     -0.737818    -0.629342    4.871266
H     0.033578    -1.291693    5.271605
H     -1.722692    -1.081686    5.009577
H     -0.697527    0.335467    5.382574
P     0.467791    0.443149    -2.545410
H     1.780313    0.519474    -3.064365
H     -0.056119    -0.468375    -3.490098
H     -0.033336    1.627473    -3.132668
