19

Fe     0.109971    -0.023171    -0.028511
O     0.315775    1.940975    0.127783
C     1.470539    2.350759    0.252466
H     1.691660    3.416965    0.370117
C     2.529528    1.259127    0.235197
H     3.605117    1.446627    0.321162
O     2.078439    0.119266    0.119674
O     -0.043994    -1.990532    0.113846
C     -0.160826    -2.441725    1.253590
H     -0.251154    -3.517081    1.440279
C     -0.171972    -1.383332    2.345759
H     -0.288842    -1.604660    3.412004
O     -0.042858    -0.228879    1.936441
O     -1.854395    0.135962    -0.233911
C     -2.263508    0.267540    -1.388192
H     -3.329292    0.389868    -1.608717
C     -1.171864    0.250582    -2.447129
H     -1.359134    0.339398    -3.522527
O     -0.032513    0.129370    -1.996261
