43

Fe     0.043484    0.022268    0.053882
O     0.064218    -0.286874    2.061622
H     0.671123    0.233072    2.616881
H     0.164541    -1.220538    2.326278
O     0.099831    0.347160    -1.942700
H     0.225781    1.293431    -2.155710
H     0.725462    -0.155652    -2.493711
O     -0.048968    2.046736    0.355285
C     -1.205729    2.719004    0.779365
C     -1.180187    3.990380    0.330275
C     0.036511    4.157514    -0.422944
C     0.694387    2.977578    -0.401188
H     -1.899091    2.135695    1.362126
H     -1.934590    4.742737    0.515280
H     1.674701    2.651201    -0.711424
H     0.382058    5.065162    -0.899450
O     2.127538    0.080586    0.114653
C     2.903634    0.901080    0.945090
C     4.213583    0.655348    0.727209
C     4.294213    -0.367110    -0.283869
C     3.029973    -0.688860    -0.633033
H     2.361589    1.605392    1.555600
H     5.041532    1.144211    1.223014
H     2.594189    -1.420261    -1.294315
H     5.195553    -0.805973    -0.689742
O     0.083646    -2.000186    -0.236729
C     0.911713    -2.931279    0.415066
C     0.532161    -4.181045    0.072337
C     -0.582911    -4.061263    -0.830843
C     -0.831735    -2.745085    -0.995625
H     1.723304    -2.519739    0.993432
H     0.993579    -5.098443    0.411899
H     -1.565495    -2.170132    -1.536833
H     -1.126939    -4.871514    -1.296916
O     -1.984925    -0.066555    0.020624
C     -2.822599    -0.422905    1.085983
C     -4.107625    -0.379297    0.675019
C     -4.104749    0.019857    -0.709470
C     -2.818408    0.202364    -1.075658
H     -2.319585    -0.639569    2.012110
H     -4.974226    -0.604599    1.281643
H     -2.311567    0.490404    -1.979897
H     -4.969468    0.155373    -1.344608
