15

Fe     0.049542    -0.098384    -0.120316
C     0.320916    1.765279    -0.261384
O     0.500721    2.884275    -0.224734
C     1.886186    -0.413899    -0.360114
O     2.997383    -0.608049    -0.474676
C     -0.191462    -1.931544    0.397388
O     -0.321620    -2.979020    0.804926
C     -1.809823    0.214024    0.254152
O     -2.888949    0.401095    0.536536
O     0.246265    0.212834    1.742359
H     1.173824    0.284074    2.021806
C     -0.494050    0.085770    -3.113364
O     -0.301980    -0.571562    -2.097855
H     -0.655742    -0.431083    -4.068105
H     -0.511207    1.186222    -3.106028
