43

Fe     -0.097369    0.045941    -0.004832
O     -0.214605    0.231687    2.123132
H     0.002660    1.086724    2.538330
H     -1.012793    -0.087546    2.584970
O     -0.241493    0.163909    -2.139072
H     -1.060243    -0.084761    -2.606527
H     0.081797    0.967443    -2.588307
O     -0.042766    2.280135    -0.100293
C     -0.897978    3.075964    -0.878256
C     -0.323682    4.277968    -1.098963
C     0.961546    4.263935    -0.447135
C     1.101451    3.055781    0.138395
H     -1.852452    2.635031    -1.118768
H     -0.759973    5.098043    -1.652883
H     1.883217    2.571760    0.702094
H     1.682915    5.069367    -0.424870
O     2.092167    -0.006378    0.005896
C     2.927369    0.033212    1.132490
C     4.214739    -0.082829    0.744947
C     4.219483    -0.212611    -0.690645
C     2.935139    -0.167753    -1.101141
H     2.421776    0.109939    2.080678
H     5.076962    -0.084729    1.397643
H     2.439331    -0.238943    -2.055335
H     5.086195    -0.332217    -1.326270
O     0.085771    -2.092111    0.019617
C     0.308137    -2.900800    1.144556
C     0.394127    -4.190843    0.762061
C     0.229476    -4.227387    -0.669803
C     0.052036    -2.956908    -1.086299
H     0.378427    -2.383435    2.087047
H     0.561083    -5.036839    1.414451
H     -0.067845    -2.476506    -2.043301
H     0.251756    -5.105836    -1.300048
O     -2.326150    -0.021040    0.077094
C     -3.123368    0.824346    0.863900
C     -4.333838    0.256874    1.055992
C     -4.323652    -1.013378    0.374814
C     -3.109150    -1.151732    -0.197908
H     -2.677689    1.771686    1.123967
H     -5.158130    0.686331    1.609487
H     -2.627948    -1.926943    -0.773662
H     -5.136930    -1.724852    0.322751
