39

Fe     -0.101018    0.145038    -0.106926
O     -0.354850    0.352800    1.964156
H     0.157868    1.063413    2.384769
H     -1.273551    0.485587    2.254724
C     0.135692    2.056814    -0.355436
N     0.290825    3.201283    -0.498444
C     0.492958    4.604718    -0.695920
H     1.437694    4.761256    -1.221917
H     0.525208    5.103491    0.275686
H     -0.332273    5.007422    -1.287960
C     1.812061    -0.018291    0.198664
N     2.958045    -0.094606    0.381456
C     4.369792    -0.179041    0.600959
H     4.828821    -0.737358    -0.218836
H     4.554690    -0.693062    1.546979
H     4.788497    0.829651    0.638026
C     -0.329828    -1.763372    0.209996
N     -0.458869    -2.894397    0.444622
C     -0.612302    -4.284226    0.747404
H     -1.560405    -4.639461    0.336850
H     -0.604847    -4.416562    1.832282
H     0.215574    -4.842903    0.303649
C     -2.026735    0.295379    -0.336748
N     -3.186976    0.344704    -0.412804
C     -4.615152    0.370863    -0.507597
H     -4.928229    -0.249353    -1.350779
H     -4.950372    1.399421    -0.658089
H     -5.042388    -0.024471    0.417482
C     0.479848    -0.683209    -4.857213
C     -0.367155    0.328851    -4.406109
C     -0.493232    0.546585    -3.038893
N     0.167085    -0.184075    -2.114619
C     0.985231    -1.162345    -2.560742
C     1.170106    -1.438602    -3.910315
H     0.597897    -0.880239    -5.918174
H     -0.931090    0.944071    -5.099050
H     -1.144973    1.326131    -2.663673
H     1.503667    -1.741030    -1.806486
H     1.842918    -2.237587    -4.204391
