31

Fe     0.000063    -0.000943    0.001033
O     0.021535    2.003939    -0.046759
N     1.098603    2.378309    0.769820
H     0.931607    2.010964    1.721629
H     1.937636    1.894191    0.402451
H     1.219155    3.398492    0.779524
O     1.930829    0.060484    -0.550025
N     2.549716    -1.014419    0.106478
H     3.558463    -1.034871    -0.087242
H     2.356407    -0.909783    1.118064
H     2.094064    -1.890414    -0.196250
O     -0.021640    -2.005781    0.048917
N     -1.099366    -2.379862    -0.766964
H     -0.932153    -2.014214    -1.719338
H     -1.221335    -3.399887    -0.775170
H     -1.937573    -1.893917    -0.399945
O     -1.930949    -0.062115    0.552020
N     -2.549508    1.012632    -0.105071
H     -2.094035    1.888649    0.197824
H     -2.355369    0.907761    -1.116512
H     -3.558374    1.033057    0.087997
O     0.614195    -0.050208    1.910765
N     -0.299394    -0.872608    2.585002
H     -0.336148    -1.771198    2.069825
H     -0.020919    -1.007194    3.564765
H     -1.237677    -0.445880    2.522347
O     -0.614290    0.048653    -1.908726
N     0.299430    0.870963    -2.582889
H     1.237655    0.444123    -2.520069
H     0.021100    1.005514    -3.562701
H     0.336287    1.769572    -2.067769
