25

Fe     0.005067    -0.013692    0.023289
N     0.300954    2.198146    0.355597
H     -0.125867    2.981868    -0.176897
N     1.056657    2.538899    1.280994
H     1.150069    3.566873    1.387598
N     2.222991    -0.347820    0.302409
H     2.615549    -1.177183    -0.173608
N     3.150197    0.243488    0.877470
H     2.763659    1.082453    1.350932
N     -0.290346    -2.225956    -0.307401
H     0.135647    -3.009410    0.226191
N     -1.045633    -2.566716    -1.233067
H     -1.139654    -3.594706    -1.339089
N     -2.213547    0.318731    -0.255341
H     -2.606747    1.147570    0.221060
N     -3.140191    -0.272558    -0.831320
H     -2.753082    -1.110930    -1.305374
N     -0.377925    -0.295932    2.220856
H     -1.045593    -1.031780    2.505631
N     0.033200    0.276825    3.242175
H     0.696383    1.022087    2.955317
N     0.388173    0.267997    -2.173915
H     1.056077    1.003720    -2.458461
N     -0.022283    -0.305147    -3.195324
H     -0.685548    -1.050365    -2.908552
