25

Fe     0.122921    -0.145630    -1.570352
S     0.384335    2.467346    -1.882634
H     -0.563577    3.063056    -1.123262
C     1.800260    2.837410    -0.851677
H     1.898262    3.877579    -0.552647
C     2.743298    1.942131    -0.555724
H     3.634874    2.229341    -0.004442
S     2.719056    0.259514    -1.157921
H     3.032397    -0.368574    -0.001532
S     0.467291    -2.692552    -1.082268
H     -0.204269    -3.402223    -2.017819
C     -0.641868    -2.945339    0.296456
H     -0.932701    -3.976421    0.479314
C     -1.007787    -1.971554    1.131360
H     -1.603348    -2.185565    2.014813
S     -0.452986    -0.276467    0.977870
H     -1.635427    0.331497    1.224333
S     -2.320265    -0.393946    -2.514013
H     -3.058169    0.618694    -2.005444
C     -2.107779    0.246862    -4.172358
H     -3.012468    0.616121    -4.647536
C     -0.955039    0.171750    -4.839702
H     -0.890995    0.486837    -5.877810
S     0.514179    -0.584189    -4.163497
H     1.420994    0.319167    -4.599987
