50

Fe     0.016638    0.012339    0.241172
C     -0.965045    4.704810    -0.530808
C     -0.008828    4.020990    -1.278653
C     0.254165    2.685226    -0.988928
N     -0.367411    2.018019    0.003606
C     -1.309009    2.680437    0.705089
C     -1.633661    4.013696    0.479239
H     -1.192722    5.746435    -0.736220
H     0.527005    4.506810    -2.087352
H     0.959775    2.114077    -1.574304
H     -1.833309    2.108099    1.463102
H     -2.402555    4.490255    1.078422
C     4.874649    0.453191    -0.077356
C     4.259402    0.601715    1.164764
C     2.874125    0.504824    1.241505
N     2.085160    0.278756    0.175076
C     2.688744    0.127672    -1.023998
C     4.068460    0.209240    -1.187437
H     5.953960    0.521552    -0.174879
H     4.836414    0.787162    2.064809
H     2.373674    0.600185    2.196351
H     2.009350    -0.063453    -1.845044
H     4.495647    0.078579    -2.176398
C     0.742122    -4.769682    0.238331
C     0.824144    -4.071614    1.442853
C     0.615762    -2.695988    1.438512
N     0.338925    -2.004327    0.317105
C     0.261892    -2.681334    -0.847072
C     0.455114    -4.056835    -0.924640
H     0.898694    -5.843909    0.208542
H     1.046216    -4.578626    2.376194
H     0.665120    -2.126200    2.359269
H     0.049156    -2.051678    -1.702474
H     0.380844    -4.553189    -1.886739
C     -4.727448    -0.927689    -0.062195
C     -4.002364    -0.445057    -1.150065
C     -2.644158    -0.179098    -1.000056
N     -1.996704    -0.361165    0.169380
C     -2.699367    -0.841978    1.213916
C     -4.056944    -1.133909    1.143459
H     -5.787664    -1.144892    -0.151757
H     -4.474682    -0.278881    -2.112771
H     -2.022195    0.163838    -1.816469
H     -2.138546    -0.999034    2.127662
H     -4.570391    -1.519760    2.018088
C     0.063827    1.011244    3.092472
O     -0.075196    0.115705    2.264154
H     -0.112534    0.806053    4.157118
H     0.366988    2.025324    2.799345
F     0.034760    -0.057930    -1.634714
