33

Fe     -0.045327    0.049047    0.277361
C     0.418445    3.117028    0.503879
N     0.263535    1.972390    0.509772
C     0.606363    4.561947    0.461278
H     0.366185    4.931794    -0.540741
H     1.645356    4.815308    0.693251
H     -0.048637    5.051622    1.188383
C     2.956695    -0.361848    -0.429290
N     1.863748    -0.223135    -0.082229
C     4.325920    -0.531635    -0.899767
H     4.956362    0.282485    -0.529195
H     4.340178    -0.521121    -1.994362
H     4.733186    -1.484030    -0.546883
C     -0.578984    -2.943462    -0.383224
N     -0.368714    -1.857809    -0.049437
C     -0.848885    -4.301815    -0.838084
H     0.010507    -4.947652    -0.633538
H     -1.040040    -4.294552    -1.915994
H     -1.726220    -4.706164    -0.323982
C     -3.106474    0.526064    0.557033
N     -1.967299    0.335247    0.544651
C     -4.543258    0.771326    0.537435
H     -5.081553    -0.100760    0.921101
H     -4.866579    0.965272    -0.490343
H     -4.787847    1.639508    1.157067
C     0.413350    -0.457863    3.395499
N     0.245474    -0.277122    2.266036
C     0.624400    -0.685650    4.820769
H     -0.332920    -0.661408    5.350505
H     1.276549    0.090667    5.232782
H     1.092315    -1.662066    4.979988
C     -0.314520    0.360651    -1.595791
N     -0.480837    0.548004    -2.736694
