25

Fe     -0.041299    0.033892    -0.028540
O     0.036097    2.083291    0.030586
H     -0.182744    2.662449    0.789484
N     1.391906    2.422757    -0.313557
H     1.427678    2.227549    -1.321679
N     2.197426    1.688141    0.482220
H     3.161871    1.846471    0.162405
O     1.951421    0.183113    0.119988
H     2.217082    -0.260577    0.954159
O     0.095512    -1.999916    0.068206
H     0.834875    -2.345548    -0.474837
N     0.589609    -2.182028    1.462170
H     0.478149    -3.193563    1.632290
N     -0.466456    -1.598765    2.204120
H     -0.200275    -1.767932    3.186179
O     -0.192857    -0.152012    2.012557
H     -1.019918    0.259973    2.340185
O     -2.057440    -0.100645    -0.225101
H     -2.476814    -0.980011    -0.096278
N     -2.368122    0.276655    -1.576177
H     -2.380366    1.302727    -1.550374
N     -1.485819    -0.312499    -2.388057
H     -1.643265    0.071988    -3.330318
O     -0.043212    0.312540    -2.003081
H     0.572996    -0.263335    -2.500188
