21

Fe     0.005755    -0.171528    0.002982
O     0.397538    1.883869    0.123159
H     1.058446    2.210642    0.759045
H     -0.327578    2.533503    0.140410
O     2.101678    -0.389764    -0.100227
H     2.659114    0.084203    -0.742119
H     2.536458    -1.248883    0.046436
O     -0.294633    -2.232889    -0.100994
H     0.044704    -2.798142    -0.817312
H     -1.236717    -2.468231    -0.010085
O     -2.073733    -0.018076    0.249317
H     -2.485114    0.114516    1.120990
H     -2.703287    0.340937    -0.400060
N     0.242122    -0.453531    2.026282
H     -0.029877    -1.401456    2.300792
H     -0.233298    0.182547    2.671501
H     1.237727    -0.381467    2.253108
N     -0.130787    0.109287    -2.033433
H     0.136642    1.072644    -2.254229
H     -1.051005    -0.029892    -2.459091
H     0.502527    -0.483195    -2.576555
