25
03/24/2023 16:57, XYZ structure generated by mol3D Class, molSimplify
Fe     -0.142994    0.033567    -0.026184
N     0.500929    2.228890    0.256680
H     0.476580    2.669804    1.181872
H     -0.126875    2.783640    -0.336637
S     2.148488    2.437147    -0.438578
S     3.072672    0.864714    0.490081
N     2.093379    -0.479115    -0.206261
H     2.256782    -1.292193    0.399419
H     2.478418    -0.724594    -1.124051
N     -0.730877    -2.156024    -0.395848
H     -0.048887    -2.820904    -0.775613
H     -1.542801    -2.197919    -1.023407
S     -1.309470    -2.779949    1.197975
S     0.236487    -2.174753    2.390393
N     0.075382    -0.386650    2.232750
H     -0.604240    -0.054479    2.924933
H     0.981750    -0.000124    2.522969
N     -2.338451    0.577798    0.205963
H     -3.021937    -0.176978    0.332910
H     -2.448763    1.182249    1.027823
S     -2.818639    1.592327    -1.208369
S     -2.115627    0.393619    -2.708859
N     -0.360139    0.413377    -2.302798
H     0.074290    1.244708    -2.718609
H     0.034639    -0.384240    -2.812151
