17

Fe     0.145720    0.007073    -0.069353
C     -0.151900    1.889588    -0.373355
O     -0.320911    2.987464    -0.570094
C     2.048903    0.274110    -0.418210
O     3.142061    0.420749    -0.649825
C     0.481307    -1.886582    0.176942
O     0.685689    -2.988109    0.304741
C     -1.729083    -0.271977    0.241419
O     -2.828970    -0.437771    0.433737
N     0.398348    0.339065    1.962127
H     1.381595    0.472004    2.216809
H     0.069043    -0.433939    2.549406
H     -0.087989    1.171213    2.311270
C     -0.835605    -0.385064    -2.939790
O     0.029347    -0.337828    -2.062820
H     -1.900730    -0.210851    -2.731280
H     -0.526885    -0.609201    -3.968552
