19

Fe     0.073038    0.018631    0.040925
O     0.366214    2.054197    -0.279021
P     0.234547    3.562195    -0.431631
H     1.617095    3.983648    -0.508255
O     2.163846    -0.186121    0.305010
P     3.570879    -0.701513    0.552198
H     3.346922    -2.098923    0.883104
O     -0.225548    -2.018770    0.343646
P     -0.402302    -3.516435    0.539403
H     -1.844901    -3.659443    0.555925
O     -2.040459    0.234157    -0.148191
P     -3.060352    0.759288    -1.151942
H     -4.302914    0.486731    -0.468636
O     -0.188822    0.351997    2.071323
P     -0.375442    0.511139    3.571912
H     -1.670089    1.157814    3.656271
O     0.299197    -0.298493    -2.011820
P     0.501959    -0.457146    -3.511386
H     1.858089    -0.966057    -3.589775
