39

Fe     -0.095258    -0.118464    0.031429
C     0.850567    2.585346    0.743518
O     0.110754    1.886871    0.056583
H     1.566784    2.146157    1.449637
H     0.800241    3.677726    0.653019
C     2.594247    -1.081149    -0.686091
O     1.906218    -0.323924    -0.007202
H     2.143383    -1.810457    -1.371102
H     3.687752    -1.033154    -0.608353
C     -1.011064    -2.817067    0.794135
O     -0.299126    -2.120164    0.076736
H     -0.958055    -3.909802    0.709500
H     -1.703827    -2.376089    1.522164
C     -2.795577    0.827257    -0.691864
O     -2.099994    0.090435    0.001203
H     -2.352942    1.536560    -1.402767
H     -3.888102    0.780263    -0.600735
C     -0.077696    -0.047344    4.896917
C     -1.198709    0.369743    4.179143
C     -1.165627    0.328711    2.789730
N     -0.089058    -0.098856    2.090007
C     0.993243    -0.501478    2.796290
C     1.038115    -0.490461    4.186142
H     -0.073210    -0.026808    5.982275
H     -2.090938    0.724941    4.683334
H     -2.023387    0.638258    2.207635
H     1.847479    -0.831977    2.219816
H     1.936852    -0.823087    4.695107
C     -0.156066    -0.138632    -4.832775
C     -0.621527    -1.235499    -4.107222
C     -0.581020    -1.193631    -2.717983
N     -0.109803    -0.130666    -2.025493
C     0.341052    0.927093    -2.739088
C     0.334890    0.961652    -4.129253
H     -0.176412    -0.141567    -5.918267
H     -1.013176    -2.116472    -4.604578
H     -0.927940    -2.034212    -2.131658
H     0.706830    1.770356    -2.168110
H     0.708534    1.840444    -4.644288
