33

Fe     -0.011389    -0.021618    0.524650
C     0.425465    3.180950    -0.358545
N     0.347507    2.171429    0.201289
C     0.518124    4.441049    -1.084256
H     0.256879    4.276749    -2.134620
H     1.537781    4.833911    -1.026852
H     -0.170211    5.175068    -0.654429
C     3.165304    -0.608713    -0.335918
N     2.186436    -0.358472    0.227872
C     4.383111    -0.927077    -1.069652
H     5.084002    -0.088317    -1.018798
H     4.134608    -1.122749    -2.117790
H     4.859346    -1.814751    -0.642403
C     -0.551505    -3.318953    0.673679
N     -0.350059    -2.205097    0.913357
C     -0.806100    -4.715468    0.345541
H     0.007789    -5.344856    0.718090
H     -0.876699    -4.826450    -0.741343
H     -1.745861    -5.043697    0.799925
C     -3.323162    0.467071    0.660666
N     -2.198179    0.325812    0.891033
C     -4.735417    0.641327    0.347349
H     -5.331767    -0.116322    0.864738
H     -4.884595    0.537963    -0.732272
H     -5.071371    1.634001    0.662011
C     0.523942    0.461662    3.821547
N     0.344837    0.295113    2.691581
C     0.748928    0.671348    5.246713
H     -0.205368    0.649350    5.781818
H     1.225438    1.642771    5.410290
H     1.397990    -0.115158    5.643569
C     -0.350038    -0.305363    -1.488018
N     -0.534971    -0.472498    -2.630915
