25

Fe     -0.059831    0.065516    0.019645
P     0.374343    2.708349    0.198332
H     0.570040    3.183927    1.511776
H     -0.605395    3.629843    -0.229050
H     1.502064    3.293894    -0.416639
P     2.591128    -0.380819    0.358608
H     3.436827    -0.460419    -0.769277
H     2.989657    -1.572998    1.001020
H     3.342315    0.536502    1.123984
P     -0.486432    -2.579292    -0.375239
H     -1.590717    -2.943169    -1.174442
H     -0.721115    -3.445286    0.715432
H     0.510123    -3.336716    -1.027799
P     -2.690979    0.536377    -0.174228
H     -3.092440    1.248007    -1.324249
H     -3.326024    1.327367    0.806901
H     -3.619162    -0.524547    -0.238534
C     -0.393912    -0.650372    3.192950
O     -0.116466    -0.002687    2.189185
H     -0.218053    -0.223574    4.189880
H     -0.821418    -1.661815    3.127390
C     0.621697    0.318625    -3.194814
O     -0.009765    0.084845    -2.169762
H     0.171736    0.119207    -4.177148
H     1.641843    0.729266    -3.163909
