21

Fe     -0.124850    -0.253140    0.091473
S     -0.460087    2.173209    -0.337536
H     0.635996    2.839634    0.084813
H     -1.279867    2.694592    0.599887
S     2.254793    0.078318    -0.310950
H     2.833981    -0.753742    0.581933
H     2.504424    -0.722554    -1.369574
S     0.293695    -2.685660    0.461907
H     -0.512955    -3.037257    1.486217
H     -0.418029    -3.336435    -0.482879
S     -2.480473    -0.632330    0.576038
H     -3.184804    0.478284    0.259702
H     -2.900906    -1.309869    -0.513650
C     0.233095    0.626062    3.031229
O     0.277529    -0.149611    2.081346
H     0.571262    0.291805    4.020116
H     -0.137329    1.655665    2.925764
C     -0.596375    -0.122264    -2.921082
O     -0.416107    -0.716392    -1.859191
H     -0.711478    -0.701310    -3.846028
H     -0.647233    0.974061    -2.976605
