25

Fe     -0.106417    -0.185131    -0.134799
C     -0.623343    3.055959    -0.446549
O     -0.138476    1.964990    -0.176954
H     -1.624543    3.144921    -0.894824
H     -0.063052    3.979529    -0.243555
C     3.131740    -0.415385    0.353136
O     2.040154    -0.230578    -0.169043
H     4.050921    -0.326781    -0.241488
H     3.225240    -0.669679    1.419055
C     -0.784041    -3.402643    -0.221749
O     -0.180613    -2.346740    -0.084624
H     -1.838990    -3.426473    -0.535330
H     -0.279592    -4.360658    -0.032590
C     -3.388705    -0.218883    0.451695
O     -2.309757    -0.190065    -0.124983
H     -3.453195    -0.246693    1.550000
H     -4.326584    -0.218118    -0.121432
P     -0.000751    -0.024955    2.565787
H     -0.112273    -1.178568    3.370917
H     -0.942460    0.790885    3.229645
H     1.169499    0.518846    3.137804
P     0.042735    -0.320877    -2.779811
H     0.649777    0.743493    -3.476855
H     -1.120729    -0.473278    -3.562817
H     0.804060    -1.389064    -3.297651
