62

Fe     0.008091    0.005821    0.064496
C     0.029342    -0.053351    -1.858172
N     0.074439    -0.155691    -3.020012
C     0.095044    -0.306791    -4.441517
H     -0.558098    -1.136248    -4.724739
H     1.115541    -0.518141    -4.770697
H     -0.257770    0.615567    -4.909634
C     -0.557961    4.929127    -0.079477
C     -1.175108    4.151154    0.898677
C     -0.946814    2.779664    0.915967
N     -0.151446    2.140585    0.029260
C     0.428050    2.907964    -0.917842
C     0.260387    4.286219    -1.005730
H     -0.713797    6.002505    -0.120841
H     -1.826877    4.593087    1.645275
H     -1.414568    2.163605    1.671285
H     1.047001    2.399550    -1.643045
H     0.765559    4.836660    -1.792064
C     4.979201    -0.054979    0.111838
C     4.234732    -0.651791    1.128033
C     2.845762    -0.607641    1.068688
N     2.158423    -0.006124    0.069856
C     2.896656    0.541911    -0.919502
C     4.287389    0.546653    -0.937622
H     6.064575    -0.069665    0.130292
H     4.715937    -1.152624    1.961571
H     2.256580    -1.087520    1.837628
H     2.352537    0.980039    -1.744052
H     4.809295    1.011596    -1.767395
C     -0.155956    -4.904636    -0.493247
C     -1.265467    -4.197705    -0.032009
C     -1.165318    -2.821920    0.145790
N     -0.034902    -2.119304    -0.092296
C     1.027226    -2.815278    -0.553298
C     1.010514    -4.190852    -0.761703
H     -0.201930    -5.978245    -0.647182
H     -2.203523    -4.697303    0.186112
H     -2.016380    -2.251822    0.491082
H     1.916404    -2.238885    -0.765004
H     1.902453    -4.685175    -1.132159
C     -4.958351    0.291661    0.098781
C     -4.243299    0.169334    1.289557
C     -2.856540    0.073119    1.239438
N     -2.143635    0.089123    0.089028
C     -2.853761    0.213521    -1.053502
C     -4.240424    0.315373    -1.094728
H     -6.041210    0.367277    0.101497
H     -4.745571    0.147744    2.251180
H     -2.285246    -0.023854    2.152337
H     -2.287029    0.231236    -1.972729
H     -4.738613    0.410804    -2.053767
C     0.609190    -0.059909    4.953947
C     1.004230    1.035008    4.186519
C     0.772780    1.018416    2.814759
N     0.164785    -0.005683    2.175350
C     -0.197000    -1.068402    2.929352
C     0.003066    -1.136008    4.304760
H     0.775816    -0.077912    6.026509
H     1.491445    1.894375    4.635378
H     1.099529    1.840750    2.192635
H     -0.655523    -1.894495    2.401281
H     -0.312408    -2.020155    4.849248
