25

Fe     -0.033893    -0.030985    0.006923
O     -0.379319    2.012458    -0.523458
C     -0.594081    3.069936    0.059378
H     -0.738057    3.996116    -0.513152
H     -0.649431    3.119924    1.156088
O     2.065955    0.301913    -0.146728
C     3.020747    0.126374    -0.894354
H     4.036115    0.385662    -0.564987
H     2.893829    -0.291051    -1.904044
O     0.419174    -2.101063    0.238110
C     0.245397    -3.134779    0.870549
H     -0.317053    -3.147706    1.816918
H     0.656567    -4.084070    0.500073
O     -2.079831    -0.320691    0.494840
C     -3.189113    -0.677942    0.119968
H     -3.366902    -1.034583    -0.906137
H     -4.041043    -0.650311    0.813439
O     0.145943    0.519615    2.072784
C     1.038582    0.504592    2.913426
H     0.849183    0.899819    3.920712
H     2.036915    0.103216    2.686753
O     -0.316615    -0.513738    -2.044932
C     -0.512548    0.140150    -3.065128
H     -0.668209    -0.376698    -4.021719
H     -0.536685    1.239123    -3.047096
