25

Fe     -0.000201    -0.017749    -0.022569
N     -0.027929    1.996036    -0.090468
H     -0.949179    2.463114    -0.042000
N     0.844597    2.873162    -0.218980
H     1.776661    2.425273    -0.273339
N     2.013699    -0.085740    0.005557
H     2.480369    -0.037720    0.927043
N     2.891153    -0.213933    -0.866692
H     2.443706    -0.267856    -1.799002
N     0.027443    -2.031720    0.045662
H     0.948974    -2.498724    0.002027
N     -0.845608    -2.909033    0.169368
H     -1.778061    -2.461408    0.219129
N     -2.013947    0.049973    -0.050771
H     -2.480549    0.004269    -0.972408
N     -2.891607    0.175264    0.821711
H     -2.444323    0.227244    1.754220
N     0.067066    -0.045380    1.991264
H     0.019417    -0.966689    2.458312
N     0.194121    0.827302    2.868477
H     0.247817    1.759475    2.420716
N     -0.067226    0.009786    -2.036469
H     -0.021293    0.931198    -2.503494
N     -0.192017    -0.863165    -2.913744
H     -0.244119    -1.795429    -2.465983
