25

Fe     -0.072203    -0.041171    0.120841
O     0.159456    2.104226    0.635916
H     -0.289742    2.833784    0.163816
N     1.554991    2.443579    0.604159
H     1.883673    2.216647    1.548674
N     2.137432    1.742803    -0.397941
H     3.137125    1.982097    -0.363959
O     2.109215    0.250553    0.034896
H     2.604718    -0.218869    -0.665912
O     0.039905    -2.134317    -0.290973
H     0.658363    -2.435881    -0.985921
N     0.632132    -2.735424    1.041084
H     0.432443    -3.739232    0.938366
N     -0.158086    -2.295871    2.037846
H     -1.168261    -2.414963    1.902911
O     0.016246    -0.877262    2.156805
H     0.663123    -0.757385    2.880535
O     -2.140716    0.212599    0.040064
H     -2.569176    0.765150    0.726500
N     -2.269076    1.071795    -1.315177
H     -3.286336    1.060241    -1.469167
N     -1.729056    0.327853    -2.288142
H     -2.047595    -0.643778    -2.362798
O     -0.316698    0.233998    -2.078027
H     0.078341    0.940302    -2.628944
