39

Fe     0.014596    -0.109776    -0.001322
N     0.226726    2.147831    0.233965
H     -0.169698    2.463655    1.121830
H     -0.268678    2.662291    -0.497270
H     1.180541    2.514515    0.224539
N     2.247567    -0.494515    -0.258790
H     2.815894    0.349363    -0.167120
H     2.473587    -0.868443    -1.182611
H     2.632133    -1.152563    0.421559
N     -0.199372    -2.369212    -0.229684
H     0.316762    -2.881462    0.488592
H     0.171308    -2.688535    -1.127383
H     -1.152541    -2.735855    -0.190915
N     -2.215886    0.283584    0.260047
H     -2.434724    0.648978    1.189179
H     -2.791892    -0.554171    0.161832
H     -2.596548    0.953290    -0.411302
C     0.486094    -0.596081    5.025309
C     -0.489207    -1.310088    4.326813
C     -0.565802    -1.160532    2.946021
N     0.256366    -0.355932    2.239158
C     1.198077    0.322981    2.928768
C     1.348746    0.234649    4.308477
H     0.572849    -0.685810    6.103852
H     -1.180208    -1.970614    4.840254
H     -1.316245    -1.701472    2.375848
H     1.857667    0.961685    2.347731
H     2.125047    0.806132    4.806298
C     -0.494880    0.338366    -5.025909
C     0.486606    1.059865    -4.344553
C     0.576068    0.925946    -2.962626
N     -0.239732    0.129426    -2.239291
C     -1.187912    -0.556764    -2.912869
C     -1.350749    -0.484340    -4.291906
H     -0.592276    0.415961    -6.104234
H     1.172677    1.714368    -4.871983
H     1.331285    1.474052    -2.405364
H     -1.842552    -1.188454    -2.318657
H     -2.131519    -1.061514    -4.775956
