21

Fe     0.000031    0.000029    0.002208
C     0.036535    2.328199    0.040271
O     0.072024    3.453023    0.080374
C     2.339655    0.034741    0.041295
O     3.465124    0.066930    0.025196
C     -0.036461    -2.328214    0.040225
O     -0.071983    -3.452991    0.080300
C     -2.339582    -0.034776    0.041293
O     -3.465121    -0.066943    0.025184
O     -0.000067    -0.000004    2.127563
H     0.774169    0.085534    2.717388
H     -0.774352    -0.085528    2.717328
O     0.000020    0.000038    -2.084170
C     0.780275    -0.821028    -2.936165
C     0.497596    -0.523746    -4.217758
C     -0.497867    0.523628    -4.217720
C     -0.780354    0.821023    -2.936129
H     1.441048    -1.519874    -2.447342
H     0.939566    -0.989135    -5.089027
H     -1.441061    1.519919    -2.447266
H     -0.939923    0.988975    -5.088973
