30

Fe     0.000045    0.000328    0.046826
C     -0.000205    0.000711    -2.370907
O     0.000014    0.001267    -3.500620
O     -0.000014    -0.000375    2.220541
H     0.779211    0.030746    2.800469
H     -0.779775    -0.027780    2.799943
C     -0.002477    2.255397    -0.070217
N     -0.001602    3.416084    -0.050526
C     0.000557    4.848001    -0.016390
H     0.837080    5.217106    -0.615074
H     0.109454    5.176428    1.020495
H     -0.943105    5.215520    -0.427332
C     2.223165    0.001746    0.056405
N     3.384623    0.001324    0.033438
C     4.815576    -0.000521    -0.002864
H     5.154091    -0.835688    -0.620371
H     5.198539    -0.109807    1.014337
H     5.161346    0.942709    -0.431977
C     0.002507    -2.255677    -0.070848
N     0.001621    -3.416295    -0.051083
C     -0.000564    -4.847927    -0.016252
H     -0.836913    -5.217348    -0.614653
H     -0.109440    -5.176020    1.020580
H     0.942897    -5.215713    -0.426941
C     -2.223080    -0.001962    0.057573
N     -3.384683    -0.001909    0.034506
C     -4.815443    -0.000712    -0.003711
H     -5.148832    -0.606199    -0.849591
H     -5.166716    1.027046    -0.120860
H     -5.197877    -0.420480    0.929427
