25

Fe     0.054335    -0.019853    -0.011548
P     -0.287139    2.297115    -0.191280
H     -0.679434    2.975065    0.982774
H     -1.275975    2.771992    -1.077406
H     0.785501    3.125081    -0.583276
P     2.381138    0.368294    0.306509
H     3.253210    -0.726064    0.483819
H     2.701519    1.114964    1.457601
H     3.105420    1.086034    -0.667200
P     0.437289    -2.344665    0.302244
H     -0.644362    -3.250368    0.296419
H     1.017467    -2.669293    1.544447
H     1.312434    -3.026167    -0.568235
P     -2.254077    -0.424053    -0.226963
H     -2.660914    -1.495488    -1.048267
H     -3.116753    0.578738    -0.717857
H     -2.948512    -0.767563    0.952968
C     -0.753469    0.418119    2.946658
O     -0.008737    0.031419    2.051759
H     -1.709663    0.919770    2.735745
H     -0.467324    0.267247    3.995490
P     0.366245    -0.249101    -2.327119
H     0.336403    0.895712    -3.150935
H     -0.529588    -1.067692    -3.046269
H     1.585032    -0.809246    -2.762748
