21
03/24/2023 16:57, XYZ structure generated by mol3D Class, molSimplify
Fe     -0.000493    0.000540    -0.002326
N     -0.260610    2.268111    0.371066
H     -1.237060    2.495763    0.550873
H     0.276226    2.598226    1.171881
H     0.014600    2.795332    -0.456605
N     2.272163    0.301683    -0.308428
H     2.495874    1.293204    -0.372770
H     2.767578    -0.069982    0.501094
H     2.638501    -0.135488    -1.152799
N     0.259457    -2.267441    -0.374561
H     1.227991    -2.488961    -0.599381
H     0.029805    -2.784865    0.473017
H     -0.311994    -2.613579    -1.143907
N     -2.271915    -0.301334    0.311307
H     -2.493861    -1.292635    0.384266
H     -2.635078    0.141768    1.153943
H     -2.771212    0.063782    -0.498814
C     0.354079    -0.328182    2.100953
N     0.592306    -0.515523    3.231909
C     -0.354688    0.327505    -2.104578
N     -0.591636    0.512090    -3.236230
