32

Fe     0.135285    0.054426    0.027880
N     -0.015129    2.128916    0.237390
H     0.245266    2.393934    1.190251
H     -0.945415    2.529005    0.093740
H     0.602618    2.669553    -0.372168
N     2.192270    0.255968    0.292686
H     2.447194    0.295418    1.281913
H     2.589924    1.101124    -0.123551
H     2.737971    -0.509126    -0.110664
N     0.327073    -1.997383    -0.258421
H     0.270624    -2.179886    -1.263592
H     -0.402886    -2.558649    0.186262
H     1.207084    -2.426906    0.035361
N     -1.897677    -0.163037    -0.366286
H     -2.350579    0.623573    -0.838085
H     -2.430820    -0.321415    0.491241
H     -2.095801    -0.969009    -0.963922
C     -0.594144    -0.574648    4.790492
C     -1.355710    0.344254    4.067520
C     -1.110765    0.499166    2.707686
N     -0.165728    -0.199498    2.034904
C     0.563361    -1.086779    2.750941
C     0.384837    -1.302016    4.113044
H     -0.759272    -0.719792    5.853514
H     -2.129758    0.936049    4.544753
H     -1.691907    1.210161    2.128613
H     1.318643    -1.644743    2.208049
H     1.004735    -2.029089    4.627052
C     0.479878    0.927519    -2.936500
O     0.459119    0.134666    -2.002450
H     0.278462    2.001342    -2.797269
H     0.701195    0.576915    -3.953206
