29

Fe     0.001726    0.000251    0.643532
C     -0.376138    2.778830    -0.541717
O     -0.412078    2.176523    0.521424
H     -0.580791    3.859467    -0.574963
H     -0.142626    2.239425    -1.469824
C     2.773028    0.379846    -0.577900
O     2.188499    0.341131    0.494457
H     2.215931    0.238410    -1.514365
H     3.859095    0.554386    -0.611286
C     0.378667    -2.777594    -0.542729
O     0.410912    -2.174792    0.520251
H     0.580649    -3.858772    -0.573960
H     0.150556    -2.238343    -1.472258
C     -2.770251    -0.375082    -0.578174
O     -2.185733    -0.335328    0.494132
H     -2.212341    -0.238950    -1.514933
H     -3.856883    -0.546100    -0.611363
C     -0.003860    -0.003033    5.558690
C     -0.736610    0.948431    4.849036
C     -0.707341    0.917538    3.460014
N     0.000067    -0.001013    2.770321
C     0.705565    -0.920536    3.460635
C     0.730916    -0.953430    4.849701
H     -0.005429    -0.003854    6.644536
H     -1.321809    1.706316    5.358564
H     -1.253250    1.646001    2.871008
H     1.253055    -1.648217    2.872129
H     1.314659    -1.712064    5.359783
F     0.001819    0.000547    -1.258461
