37

Fe     -0.000062    -0.001744    0.000142
C     0.496812    3.058525    -0.451696
N     0.315996    1.929762    -0.281791
C     0.724292    4.482130    -0.667986
H     0.622398    4.719143    -1.731817
H     1.731586    4.755055    -0.337710
H     -0.006516    5.068247    -0.101680
C     3.059800    -0.447321    0.504654
N     1.931224    -0.282046    0.318445
C     4.483283    -0.656279    0.739605
H     5.016123    0.298116    0.681308
H     4.890885    -1.337859    -0.013783
H     4.638631    -1.090091    1.732570
C     -0.501052    -3.061738    0.448199
N     -0.316943    -1.933059    0.281340
C     -0.734184    -4.485145    0.659305
H     0.212613    -4.992135    0.871135
H     -1.182157    -4.927922    -0.235980
H     -1.412731    -4.631471    1.505782
C     -3.060055    0.445848    -0.501297
N     -1.931330    0.278850    -0.317564
C     -4.483707    0.658422    -0.731868
H     -5.069883    0.089846    -0.002886
H     -4.753361    0.328067    -1.740038
H     -4.723885    1.721522    -0.629860
C     -0.449036    0.499450    3.060072
N     -0.281796    0.315585    1.931404
C     -0.659906    0.731857    4.483681
H     -1.705501    0.538101    4.743358
H     -0.417954    1.769877    4.733090
H     -0.018579    0.066554    5.070501
C     0.453569    -0.500072    -3.059517
N     0.282700    -0.318547    -1.931012
C     0.669962    -0.728651    -4.482905
H     1.731527    -0.611449    -4.722956
H     0.091119    -0.008410    -5.069849
H     0.354262    -1.741692    -4.751816
