24

Fe     -0.049299    0.019945    0.016765
C     -1.099817    2.914723    -0.462811
O     -0.175866    2.128104    -0.274547
H     -2.138981    2.566624    -0.542084
H     -0.892936    3.989007    -0.556411
C     2.923179    1.032992    0.489721
O     2.052928    0.167340    0.506599
H     3.946904    0.793290    0.807962
H     2.702432    2.058208    0.158822
C     0.927781    -2.893116    0.581089
O     0.065015    -2.097910    0.218640
H     0.706393    -3.968286    0.604816
H     1.927340    -2.550994    0.883136
C     -3.002685    -1.006522    -0.369975
O     -2.167041    -0.111383    -0.285665
H     -4.058531    -0.760179    -0.545495
H     -2.717795    -2.063805    -0.272849
O     -0.402723    0.272740    2.096096
H     -1.260498    0.320563    2.550381
H     0.286124    0.440701    2.760526
P     0.497783    -0.258855    -2.611792
H     -0.555931    -0.209091    -3.548719
H     1.115159    -1.452004    -3.042832
H     1.371049    0.667901    -3.219668
