21

Fe     -0.211496    -0.133926    0.028205
S     -0.291659    2.577472    -0.174584
H     -1.399706    2.873211    -0.884845
H     0.563827    2.863468    -1.177444
S     2.440095    0.206325    -0.360782
H     3.095290    -0.701157    0.393691
H     2.734830    -0.395915    -1.531872
S     0.118941    -2.770247    0.298047
H     0.774160    -2.750594    1.477450
H     -1.019675    -3.266288    0.827531
S     -2.814904    0.083763    0.569237
H     -3.259907    -1.067135    1.116621
H     -3.438802    -0.104851    -0.612427
C     0.225446    0.889503    2.986269
O     0.191057    0.043687    2.093227
H     -0.000020    1.947142    2.790131
H     0.488770    0.587771    4.008506
C     -0.596454    -1.122668    -2.956850
O     -0.578741    -0.309308    -2.035668
H     -0.329408    -2.178076    -2.800639
H     -0.881944    -0.796589    -3.965956
