33

Fe     -0.000353    0.000452    -0.194266
C     0.003744    -0.000227    2.282190
O     0.000758    0.001060    3.412581
C     -0.002106    2.243561    -0.039334
N     -0.010821    3.402985    0.029770
C     -0.019399    4.831096    0.119303
H     0.809298    5.229968    -0.470661
H     0.094323    5.122976    1.166046
H     -0.968113    5.207383    -0.270689
C     2.240164    0.012826    -0.040514
N     3.399324    -0.005922    0.028968
C     4.827101    -0.026884    0.120107
H     5.210364    -0.861015    -0.472306
H     5.116017    -0.149573    1.166766
H     5.221527    0.915411    -0.267400
C     0.001620    -2.239958    -0.040913
N     0.011056    -3.399220    0.028492
C     0.021004    -4.827059    0.118778
H     -0.807923    -5.226482    -0.470401
H     -0.091182    -5.118568    1.165848
H     0.969655    -5.202067    -0.272461
C     -2.241971    -0.009854    -0.035897
N     -3.401586    0.005757    0.029041
C     -4.829851    0.023803    0.114344
H     -5.243062    -0.595772    -0.685158
H     -5.180202    1.052968    0.005984
H     -5.133502    -0.371360    1.086649
C     -0.003000    0.000507    -2.388140
N     -0.000917    0.001007    -3.549928
C     0.001875    -0.002569    -4.980196
H     -0.617738    -0.830282    -5.333670
H     1.027156    -0.130082    -5.335748
H     -0.403262    0.945132    -5.342831
