39

Fe     -0.019554    -0.068603    0.002120
N     0.106240    2.021504    -0.013736
H     -0.363820    2.438323    0.793443
H     -0.340033    2.427639    -0.839625
H     1.048423    2.419904    -0.002630
N     2.059199    -0.294709    0.023816
H     2.505930    -0.072262    0.916443
H     2.560765    0.245859    -0.684040
H     2.321059    -1.264603    -0.163678
N     -0.152777    -2.158000    0.027693
H     0.296267    -2.558659    0.854713
H     0.305844    -2.590661    -0.777699
H     -1.099729    -2.545304    0.028767
N     -2.099526    0.156132    -0.022651
H     -2.583710    -0.212781    0.798602
H     -2.568658    -0.254266    -0.832756
H     -2.358008    1.144692    -0.050683
C     -0.032869    -0.057470    4.900982
C     -0.874513    -0.909178    4.185208
C     -0.845570    -0.871807    2.795187
N     -0.042830    -0.047692    2.085670
C     0.760813    0.776111    2.795343
C     0.799885    0.803418    4.185648
H     -0.025368    -0.065762    5.986593
H     -1.544817    -1.596537    4.690461
H     -1.487371    -1.536951    2.225490
H     1.399524    1.442199    2.223481
H     1.471976    1.487865    4.692664
C     -0.008483    -0.108566    -4.892307
C     0.819908    0.762433    -4.184260
C     0.791192    0.736470    -2.793653
N     0.001406    -0.094129    -2.077065
C     -0.793420    -0.931901    -2.779821
C     -0.832025    -0.971854    -4.169276
H     -0.011922    -0.114593    -5.977967
H     1.479519    1.455069    -4.696965
H     1.424545    1.413569    -2.228775
H     -1.422442    -1.603252    -2.203738
H     -1.496496    -1.668717    -4.668958
