32

Fe     -0.000602    0.000392    0.187574
N     -0.253282    2.211427    -0.102155
H     0.189889    2.803914    0.603712
H     -1.230034    2.510102    -0.134871
H     0.139888    2.493492    -1.002733
N     2.201372    0.362217    -0.066914
H     2.809571    -0.389987    0.262675
H     2.544544    1.203217    0.402719
H     2.419650    0.480312    -1.058542
N     0.253208    -2.210906    -0.101844
H     -0.142163    -2.494825    -1.000863
H     -0.186825    -2.803350    0.606012
H     1.230394    -2.507830    -0.137179
N     -2.202404    -0.363342    -0.064247
H     -2.422222    -0.488474    -1.054669
H     -2.809641    0.391868    0.260227
H     -2.545632    -1.200491    0.412192
C     0.002161    0.001143    5.166541
C     -0.897967    0.797275    4.455766
C     -0.865075    0.765709    3.066752
N     0.000288    0.000413    2.365291
C     0.866613    -0.764488    3.065994
C     0.901352    -0.795348    4.454978
H     0.002884    0.001416    6.252244
H     -1.614611    1.431719    4.966450
H     -1.554409    1.372601    2.486677
H     1.555183    -1.371670    2.485321
H     1.618689    -1.429519    4.965029
C     -0.002809    -0.001783    -3.533505
O     0.000514    0.001194    -2.310815
H     0.652252    0.668539    -4.113734
H     -0.660799    -0.675014    -4.107048
