25
03/24/2023 16:57, XYZ structure generated by mol3D Class, molSimplify
Fe     0.010869    -0.017134    -0.013506
C     0.289691    2.116505    0.164820
H     -0.587705    2.750436    -0.041996
O     1.316043    2.891218    0.031545
H     2.167587    2.450509    0.230432
C     2.310128    -0.465825    -0.157322
H     3.009615    -0.135029    0.631009
O     2.918875    -1.418354    -0.771438
H     2.402274    -1.800541    -1.513994
C     -0.268185    -2.150006    -0.192521
H     0.608864    -2.784337    0.014477
O     -1.295167    -2.923895    -0.058599
H     -2.146372    -2.482603    -0.257600
C     -2.288628    0.431729    0.129239
H     -2.987176    0.101735    -0.660256
O     -2.897454    1.384856    0.742478
H     -2.381705    1.766449    1.485915
C     0.339867    -0.244534    2.065261
H     1.240203    0.216588    2.500108
O     -0.451796    -0.490215    3.056199
H     -1.276080    -0.949260    2.790071
C     -0.320014    0.208706    -2.092515
H     -1.219771    -0.254846    -2.525966
O     0.471037    0.453294    -3.084314
H     1.294657    0.914299    -2.819584
