22

Fe     0.000808    -0.001604    0.007261
C     0.906819    1.691920    0.040543
O     1.448191    2.681294    0.066495
C     1.717484    -0.865019    0.028614
O     2.726852    -1.368606    0.040219
C     -0.904640    -1.694412    0.043400
O     -1.447890    -2.682713    0.068325
C     -1.714397    0.861679    0.028266
O     -2.723277    1.366113    0.040515
C     -0.000752    -0.003099    -1.917737
O     -0.001079    -0.001352    -3.045711
C     -0.002181    0.000823    4.866201
C     -0.383166    1.138372    4.152315
C     -0.370174    1.105955    2.763968
N     -0.000587    0.001996    2.063201
C     0.370544    -1.101209    2.763670
C     0.380319    -1.135499    4.151553
H     0.001761    0.000832    5.951939
H     -0.690970    2.049352    4.655718
H     -0.667350    1.984663    2.202976
H     0.668665    -1.978539    2.201798
H     0.684446    -2.047702    4.654211
