39

Fe     0.001683    -0.003506    -0.306454
O     0.002692    -0.007332    2.016755
H     0.761941    0.159597    2.598957
H     -0.772088    -0.093503    2.596008
C     0.002534    2.241007    -0.020251
N     0.005259    3.382269    0.205449
C     0.008417    4.786699    0.478774
H     0.847454    5.252279    -0.043954
H     0.113325    4.941825    1.555341
H     -0.932202    5.222075    0.132952
C     2.238084    -0.001966    -0.106634
N     3.399270    -0.003508    -0.042524
C     4.827842    -0.007911    0.032108
H     5.215690    -0.832468    -0.570572
H     5.129402    -0.137866    1.074365
H     5.211177    0.941384    -0.349319
C     -0.001008    -2.243735    -0.020924
N     -0.004377    -3.384824    0.205055
C     -0.007944    -4.788601    0.480607
H     -0.847188    -5.255045    -0.041046
H     -0.112771    -4.941150    1.557446
H     0.932567    -5.224942    0.135705
C     -2.236800    -0.001733    -0.105194
N     -3.398113    -0.000587    -0.042818
C     -4.826899    0.003574    0.027988
H     -5.227390    -0.609446    -0.782767
H     -5.188503    1.029667    -0.070953
H     -5.137937    -0.409076    0.990804
C     -0.000384    -0.000314    -5.268679
C     -0.044792    1.199429    -4.557554
C     -0.039376    1.155616    -3.169278
N     -0.000269    -0.001703    -2.472808
C     0.038753    -1.158368    -3.170431
C     0.044032    -1.200788    -4.558761
H     -0.000289    0.000335    -6.354002
H     -0.082771    2.156783    -5.066516
H     -0.066153    2.067405    -2.584675
H     0.065465    -2.070746    -2.586732
H     0.081897    -2.157540    -5.068886
