19

Fe     0.022505    -0.016472    0.048261
O     0.510119    1.851086    -0.349747
P     -0.253126    3.137386    0.010755
H     0.645071    4.110355    -0.555148
O     1.890155    -0.414108    0.536073
P     3.176315    -0.055107    -0.228186
H     4.149520    -0.619487    0.670700
O     -0.465396    -1.884183    0.445603
P     0.298768    -3.170348    0.086615
H     -0.601306    -4.143563    0.649103
O     -1.845144    0.380828    -0.439664
P     -3.131298    0.021236    0.324321
H     -4.104566    0.584901    -0.574957
O     -0.374701    0.471458    1.915787
P     -0.015378    -0.292134    3.202222
H     -0.578471    0.607560    4.175419
O     0.420602    -0.504224    -1.819298
P     0.060456    0.259320    -3.105495
H     0.626250    -0.638617    -4.078760
