25

Fe     0.034774    0.031542    0.012342
P     -0.435956    2.424712    0.309734
H     -1.616073    2.697314    1.027112
H     -0.567985    3.252395    -0.821669
H     0.538240    3.097273    1.071736
P     2.448528    0.315359    0.341454
H     2.934760    1.636216    0.388255
H     3.318221    -0.295019    -0.582385
H     2.871856    -0.216856    1.573556
P     0.441714    -2.370702    -0.166149
H     0.110971    -2.984376    -1.389856
H     -0.306300    -3.129340    0.755407
H     1.749402    -2.842992    0.058267
P     -2.356743    -0.315677    -0.374699
H     -2.730940    -1.384128    -1.213319
H     -3.099083    0.755058    -0.908671
H     -3.056486    -0.606514    0.812410
C     -0.569989    -0.534598    3.011313
O     -0.105614    -0.034333    1.981733
H     -1.259907    -1.389330    2.981547
H     -0.285703    -0.115414    3.985520
P     0.410518    0.421055    -2.350909
H     -0.726175    0.760552    -3.109002
H     0.963745    -0.650585    -3.077068
H     1.294177    1.478408    -2.639231
