25

Fe     -0.004643    -0.002521    0.020545
O     0.310932    1.953608    -0.274054
C     0.507039    3.160018    -0.439814
H     -0.335433    3.836980    -0.643792
H     1.526394    3.569305    -0.385694
O     1.978872    -0.315582    0.527561
C     3.045214    -0.573323    -0.038911
H     3.086873    -0.758426    -1.121432
H     3.970509    -0.619634    0.551532
O     -0.320637    -1.958128    0.317333
C     -0.495835    -3.177899    0.368880
H     -0.683041    -3.667312    1.335787
H     -0.467164    -3.786272    -0.546880
O     -2.006278    0.204347    -0.475998
C     -3.078572    0.399170    0.104600
H     -3.129825    0.477771    1.199567
H     -3.999760    0.496725    -0.486008
O     -0.466547    0.389207    1.994139
C     0.106331    0.482248    3.084278
H     1.196935    0.375366    3.168988
H     -0.487253    0.673254    3.988723
O     0.475319    -0.300826    -1.970443
C     -0.080047    -0.286990    -3.073446
H     0.498219    -0.547639    -3.970430
H     -1.140859    -0.018163    -3.175478
