33

Fe     -0.047047    0.031986    -0.002405
N     -0.386936    2.047247    -0.335951
C     -0.596847    3.185367    -0.448832
C     -0.859094    4.603754    -0.587624
H     0.044675    5.118509    -0.936615
H     -1.666781    4.764465    -1.312635
H     -1.157663    5.021492    0.382101
N     1.993142    0.335280    -0.315394
C     3.133537    0.544132    -0.407694
C     4.555670    0.803604    -0.521452
H     4.764948    1.345133    -1.452258
H     4.889856    1.412005    0.328379
H     5.109034    -0.143672    -0.524655
N     0.280616    -2.005650    0.294508
C     0.418718    -3.158586    0.362870
C     0.590612    -4.595822    0.447501
H     1.176449    -4.950351    -0.409834
H     1.118699    -4.857134    1.372951
H     -0.389337    -5.089074    0.440979
N     -2.064314    -0.251048    0.367060
C     -3.209810    -0.387426    0.513088
C     -4.637551    -0.558320    0.692343
H     -5.087037    0.385848    1.024371
H     -5.096463    -0.860993    -0.257302
H     -4.829693    -1.331468    1.446617
C     0.443284    -0.070707    3.092347
O     0.277171    0.460120    1.996422
H     0.538500    0.560722    3.986358
H     0.500438    -1.163021    3.202049
C     0.063234    -0.295719    -3.134313
O     -0.392433    -0.356254    -1.994424
H     1.085150    0.061339    -3.326177
H     -0.562938    -0.605634    -3.982290
