25
03/24/2023 16:57, XYZ structure generated by mol3D Class, molSimplify
Fe     -0.134381    0.041774    -0.031601
N     0.409674    1.974343    0.516947
H     0.343401    2.186293    1.522374
H     -0.202962    2.664589    0.056850
S     2.110466    2.370998    -0.023470
S     2.934986    0.711007    0.825901
N     1.889601    -0.478551    -0.092612
H     2.041733    -1.388067    0.369231
H     2.290681    -0.582537    -1.034866
N     -0.698794    -1.875510    -0.619783
H     0.074055    -2.453300    -0.978127
H     -1.385887    -1.836110    -1.387522
S     -1.501772    -2.799576    0.735552
S     0.001215    -2.449171    2.070507
N     -0.101741    -0.625588    1.935405
H     -0.900974    -0.320098    2.507051
H     0.731442    -0.264762    2.424757
N     -2.137069    0.564269    0.073525
H     -2.763669    -0.253477    0.038738
H     -2.374099    1.024565    0.964383
S     -2.617971    1.755059    -1.225244
S     -1.801860    0.668738    -2.749088
N     -0.125252    0.632107    -2.022687
H     0.330492    1.544092    -2.171711
H     0.408792    -0.017165    -2.618106
