15

Fe     -0.035688    0.111494    -0.004572
C     -0.378084    2.024987    -0.311393
O     -0.590251    3.114195    -0.495611
C     1.873846    0.398011    -0.344058
O     2.975890    0.558733    -0.503508
C     0.265774    -1.824122    0.317122
O     0.435095    -2.911835    0.545910
C     -1.978220    -0.195914    0.327752
O     -3.067600    -0.365556    0.546339
O     0.211960    0.288619    1.742126
H     0.457038    1.168169    2.108562
C     -0.023593    -0.604178    -3.021694
O     -0.465018    -0.175787    -1.951646
H     -0.671681    -0.569668    -3.906866
H     0.990575    -1.017150    -3.117857
