28

Fe     0.001219    -0.000165    0.105068
N     0.032356    1.941208    0.083239
C     0.047469    3.092735    0.015176
C     0.063953    4.546504    -0.057977
H     -0.315106    4.970595    0.877226
H     1.087584    4.897757    -0.221005
H     -0.563695    4.883203    -0.889058
N     1.942517    0.025163    0.081886
C     3.094292    0.040073    0.018069
C     4.548465    0.060074    -0.045580
H     4.879646    0.855056    -0.721023
H     4.961485    0.238112    0.952432
H     4.916717    -0.899801    -0.420766
N     -0.030345    -1.941436    0.082617
C     -0.047282    -3.093097    0.017244
C     -0.066930    -4.547100    -0.049650
H     0.731042    -4.898859    -0.711016
H     0.080648    -4.967390    0.950289
H     -1.029528    -4.887408    -0.443854
N     -1.940497    -0.025419    0.084869
C     -3.092064    -0.040159    0.017532
C     -4.545775    -0.060262    -0.055864
H     -4.863291    -0.409960    -1.043255
H     -4.947397    -0.729074    0.711907
H     -4.939203    0.947603    0.109514
I     0.002954    -0.000887    2.745414
N     -0.006466    0.001924    -2.977403
C     -0.002769    0.001010    -1.809335
