21

Fe     -0.028695    -0.198867    0.008872
O     0.298352    1.794625    0.319070
H     -0.398653    2.460316    0.491683
H     1.155118    2.268315    0.287230
O     2.012170    -0.534379    0.020665
H     2.615319    -0.453914    0.789645
H     2.580831    -0.794750    -0.734474
O     -0.338067    -2.195831    -0.304384
H     0.337844    -2.902164    -0.248851
H     -1.197648    -2.627194    -0.487983
O     -2.065951    0.148549    -0.050359
H     -2.722777    -0.037264    0.653414
H     -2.578474    0.501891    -0.807273
P     -0.169184    -0.633249    2.914817
H     0.115633    -1.948425    3.333444
H     -1.426808    -0.363806    3.493258
H     0.711507    0.170332    3.666685
P     0.101067    0.214744    -2.916226
H     -1.145692    0.156853    -3.572702
H     0.869626    -0.745707    -3.604597
H     0.642433    1.450673    -3.322341
