53

Fe     0.002440    -0.047407    -0.005194
C     0.016777    4.829741    -0.011567
C     1.074772    4.111130    -0.572815
C     1.039169    2.721358    -0.551406
N     0.009139    2.023430    -0.009278
C     -1.016782    2.727948    0.531475
C     -1.044907    4.117814    0.551076
H     0.019720    5.915908    -0.012262
H     1.924669    4.615322    -1.021826
H     1.851794    2.143686    -0.973067
H     -1.832766    2.155086    0.953047
H     -1.892564    4.626999    0.998680
C     4.815015    -0.410609    -0.037695
C     4.176520    0.297225    0.983961
C     2.792819    0.407962    0.966232
N     2.029115    -0.148386    -0.005311
C     2.652664    -0.839499    -0.993277
C     4.032800    -0.983810    -1.042558
H     5.896099    -0.513196    -0.049339
H     4.739308    0.763175    1.786121
H     2.280391    0.970860    1.733851
H     2.020973    -1.293549    -1.745100
H     4.479931    -1.544848    -1.856605
C     0.005962    -4.831871    -0.004063
C     0.546520    -4.119239    1.069849
C     0.531101    -2.731477    1.037563
N     0.000874    -2.043040    -0.002958
C     -0.528178    -2.732517    -1.043085
C     -0.538508    -4.120296    -1.076598
H     0.008881    -5.918032    -0.005238
H     0.981805    -4.627713    1.924180
H     0.949152    -2.149944    1.847761
H     -0.948679    -2.151405    -1.852199
H     -0.973170    -4.629079    -1.931080
C     -4.812127    -0.395433    0.021321
C     -4.031946    -0.986436    1.017530
C     -2.651294    -0.844881    0.971208
N     -2.025217    -0.140581    -0.005506
C     -2.787105    0.434018    -0.967498
C     -4.171176    0.328483    -0.987581
H     -5.893588    -0.495544    0.030215
H     -4.481524    -1.559054    1.822473
H     -2.021905    -1.311694    1.716993
H     -2.272953    1.008900    -1.724871
H     -4.732326    0.810764    -1.781546
C     -0.018033    0.772684    2.953852
O     -0.045128    -0.042261    2.033578
H     0.114759    1.847933    2.777324
H     -0.128523    0.415463    3.986210
C     -0.002159    0.771296    -2.962866
O     0.039919    -0.045433    -2.044768
H     -0.133340    1.845978    -2.781541
H     0.092120    0.416194    -3.997477
