17

Fe     0.002179    0.001300    -0.044866
C     0.047000    2.002377    -0.007787
O     0.065934    3.123740    -0.014722
C     2.003265    0.045611    -0.006448
O     3.124638    0.064131    -0.012616
C     -0.042057    -1.999940    -0.004982
O     -0.060618    -3.121317    -0.009688
C     -1.999081    -0.043126    -0.006332
O     -3.120452    -0.061928    -0.011807
C     0.001372    0.001497    1.990613
O     0.000995    0.001560    3.111881
C     -0.001837    -0.007503    -3.091958
N     0.000998    -0.000947    -1.915174
C     -0.006886    -0.016094    -4.520923
H     1.030957    -0.020317    -4.905056
H     -0.482844    0.915142    -4.894956
H     -0.566781    -0.884076    -4.904199
