35

Fe     -0.074890    -0.064263    -0.015479
C     0.234674    2.088066    -0.362067
N     0.396838    3.221962    -0.536294
C     0.598274    4.627629    -0.750226
H     1.357776    4.758765    -1.525940
H     0.932579    5.079664    0.187603
H     -0.348360    5.072602    -1.069156
C     2.071356    -0.435377    -0.334154
N     3.203282    -0.629370    -0.487684
C     4.606287    -0.869540    -0.676892
H     4.734614    -1.854036    -1.135336
H     5.100910    -0.838074    0.297844
H     5.009801    -0.092082    -1.331539
C     -0.387462    -2.215874    0.335758
N     -0.548003    -3.345629    0.537000
C     -0.746607    -4.745817    0.785854
H     -1.715430    -5.041479    0.373674
H     -0.727289    -4.915077    1.866046
H     0.057785    -5.305513    0.300527
C     -2.225737    0.278310    0.314289
N     -3.354710    0.457786    0.503418
C     -4.753299    0.681804    0.740233
H     -4.890845    1.715041    1.070770
H     -5.092428    -0.012173    1.514270
H     -5.299292    0.506207    -0.190851
C     0.289283    0.246641    2.130032
N     0.479402    0.407347    3.261401
C     0.714134    0.606376    4.663257
H     1.369277    -0.190610    5.025593
H     -0.245254    0.574635    5.186968
H     1.189865    1.580770    4.804348
N     -0.435647    -0.304370    -2.172685
H     -1.263566    0.205030    -2.496333
H     0.351010    0.025774    -2.739806
H     -0.581905    -1.286871    -2.423471
