31

Fe     -0.000499    -0.001028    0.030109
C     0.322950    1.929524    -0.242451
N     0.497583    3.064958    -0.383467
C     0.711398    4.479465    -0.552675
H     1.504350    4.628662    -1.290176
H     1.005151    4.902823    0.412078
H     -0.221584    4.934786    -0.895619
C     1.924351    -0.300279    -0.318173
N     3.043297    -0.493884    -0.540816
C     4.432339    -0.742418    -0.828576
H     4.520579    -1.724919    -1.299792
H     4.991890    -0.719938    0.110803
H     4.794189    0.038860    -1.502485
C     -0.325141    -1.931621    0.301256
N     -0.501601    -3.067122    0.439322
C     -0.717202    -4.482114    0.601996
H     -1.674698    -4.743532    0.143161
H     -0.736428    -4.711352    1.671089
H     0.099821    -5.018317    0.112136
C     -1.924766    0.298542    0.381467
N     -3.042071    0.493741    0.610841
C     -4.427757    0.745729    0.911636
H     -4.547423    1.808020    1.139855
H     -4.711955    0.135883    1.773741
H     -5.030338    0.472055    0.041098
S     0.363928    0.408768    2.408861
H     1.704465    0.578353    2.472458
H     0.391634    -0.843177    2.921209
S     -0.362806    -0.411425    -2.348655
H     -1.704272    -0.572573    -2.414940
H     -0.381356    0.840241    -2.862177
