25

Fe     0.001563    0.001976    0.001163
O     0.309877    1.884638    -0.410399
C     0.496238    2.909024    0.257788
H     0.530228    2.897919    1.354733
H     0.628791    3.859545    -0.276155
O     1.884486    -0.249447    0.447932
C     2.916752    -0.446609    -0.205231
H     2.915884    -0.501384    -1.301279
H     3.860580    -0.572057    0.342124
O     -0.306710    -1.880664    0.412869
C     -0.492955    -2.905134    -0.255215
H     -0.625364    -3.855649    0.278778
H     -0.526953    -2.894115    -1.352166
O     -1.881436    0.253193    -0.445613
C     -2.913527    0.450887    0.207672
H     -2.912437    0.506401    1.303679
H     -3.857460    0.576064    -0.339563
O     -0.353237    0.377993    1.864787
C     0.083028    -0.134391    2.905510
H     0.818564    -0.947925    2.884895
H     -0.283577    0.247411    3.867625
O     0.356033    -0.373662    -1.862387
C     -0.080147    0.138745    -2.903119
H     0.286573    -0.243210    -3.865130
H     -0.815628    0.952334    -2.882624
