31

Fe     0.120199    0.025658    0.017397
O     -0.050592    2.039660    0.155222
P     -0.887301    2.964521    1.075075
H     -2.189400    3.203028    0.605837
H     -1.044400    2.471602    2.380227
H     -0.295674    4.229274    1.207440
O     2.119222    0.181196    -0.186098
P     3.134714    1.217482    -0.720942
H     2.848863    1.679448    -2.016558
H     3.242377    2.374266    0.068220
H     4.427939    0.678544    -0.787817
O     0.313084    -1.977738    -0.123431
P     0.893054    -2.958885    -1.172394
H     2.150833    -2.580154    -1.668485
H     1.063092    -4.241121    -0.630024
H     0.080656    -3.128817    -2.305183
O     -1.898785    -0.085854    0.228274
P     -2.925006    -1.091533    0.800159
H     -4.241769    -0.709658    0.503479
H     -2.785388    -2.396919    0.300833
H     -2.874239    -1.225417    2.197878
O     0.285955    -0.150997    2.023134
P     1.182991    -0.998826    2.956914
H     2.520775    -1.083914    2.537730
H     1.218914    -0.467494    4.254456
H     0.755505    -2.328866    3.102223
O     -0.057943    0.162408    -2.003820
P     -0.927354    1.013658    -2.958204
H     -0.516651    2.353002    -3.063841
H     -0.905371    0.507224    -4.266009
H     -2.283088    1.073788    -2.594500
