25

Fe     -0.021810    -0.001044    0.020893
N     0.218916    2.014738    -0.352722
H     0.219701    2.592610    0.507463
N     0.378725    2.760138    -1.326163
H     0.390305    2.261956    -2.236311
N     2.040811    -0.031152    0.188007
H     2.533813    0.878082    0.116789
N     2.879938    -0.924512    0.351536
H     2.448386    -1.864443    0.417721
N     -0.262469    -2.016753    0.394452
H     -0.263863    -2.594586    -0.465756
N     -0.421800    -2.762158    1.367966
H     -0.432760    -2.264007    2.278133
N     -2.084451    0.028977    -0.146606
H     -2.577425    -0.880227    -0.074833
N     -2.923559    0.922166    -0.311130
H     -2.492022    1.862070    -0.377831
N     -0.240473    0.428248    2.027376
H     -1.226646    0.442926    2.345471
N     0.491790    0.679909    2.991197
H     1.501643    0.693954    2.752566
N     0.196770    -0.430258    -1.985675
H     1.182980    -0.445127    -2.303638
N     -0.535372    -0.681723    -2.949645
H     -1.545266    -0.695568    -2.711170
