29

Fe     -0.135018    0.008703    0.579430
C     0.212099    2.638393    -0.528825
O     0.136414    1.959122    0.495308
H     0.389738    3.715605    -0.428889
H     0.097673    2.178697    -1.517157
C     2.439810    -0.468854    -0.653459
O     1.800121    -0.309450    0.386035
H     3.523075    -0.622560    -0.580512
H     1.953440    -0.458354    -1.637159
C     -0.668166    -2.612631    -0.482525
O     -0.404916    -1.942502    0.516340
H     -0.795282    -3.695299    -0.365813
H     -0.772134    -2.139262    -1.465493
C     -2.922441    0.501454    0.113399
O     -2.033536    0.316596    0.945323
H     -2.702910    0.524872    -0.961758
H     -3.949911    0.643017    0.468881
C     0.550176    -0.036614    5.283192
C     -0.111294    1.032583    4.674298
C     -0.295242    1.014698    3.299819
N     0.149942    -0.007202    2.532333
C     0.793205    -1.043326    3.119379
C     1.008198    -1.090221    4.488694
H     0.706207    -0.048222    6.357649
H     -0.481388    1.872389    5.252275
H     -0.798630    1.827030    2.791340
H     1.131824    -1.843437    2.473386
H     1.525781    -1.940475    4.919389
F     -0.346837    0.025256    -1.188619
