37

Fe     -0.001327    -0.001270    -0.001779
C     0.299848    1.917807    0.322463
N     0.469201    3.048498    0.494871
C     0.678641    4.455587    0.704898
H     1.604193    4.749531    0.202809
H     0.757764    4.640881    1.779306
H     -0.169829    5.002808    0.286625
C     1.919060    -0.275595    0.318758
N     3.050887    -0.444151    0.484542
C     4.458772    -0.654435    0.688228
H     4.828959    -1.318367    -0.097551
H     4.605657    -1.113799    1.669148
H     4.968841    0.310865    0.639817
C     -0.332371    -1.915996    -0.302522
N     -0.512155    -3.041060    -0.499628
C     -0.735365    -4.439638    -0.748892
H     -1.480977    -4.540282    -1.541463
H     -1.095872    -4.905252    0.172188
H     0.209911    -4.894801    -1.055884
C     -1.927247    0.294412    -0.288705
N     -3.054946    0.475772    -0.468336
C     -4.457090    0.700968    -0.693751
H     -4.717707    1.693381    -0.316865
H     -5.025586    -0.068123    -0.164853
H     -4.651346    0.643097    -1.768096
C     -0.291421    -0.318285    1.890172
N     -0.469787    -0.497464    3.018361
C     -0.691503    -0.718565    4.421944
H     -0.197046    -1.650991    4.708622
H     -1.767677    -0.792295    4.598921
H     -0.268452    0.120766    4.979791
C     0.507260    0.454007    -3.057373
N     0.312536    0.291349    -1.926374
C     0.750547    0.658994    -4.474315
H     1.752797    1.076734    -4.624896
H     0.006541    1.355447    -4.880199
H     0.672091    -0.296188    -5.007089
