31

Fe     0.060710    -0.116453    0.188611
P     0.561451    2.440483    0.564866
H     1.316936    3.178353    -0.373327
C     0.105929    3.511712    1.760761
H     -0.495451    3.207186    2.614125
H     0.400288    4.560699    1.717016
P     2.627156    -0.534973    -0.251013
H     3.610709    -0.084326    0.657158
C     3.427130    -1.406639    -1.428756
H     2.902931    -1.879944    -2.255613
H     4.511203    -1.521985    -1.404667
P     -0.376521    -2.709813    -0.098624
H     0.569795    -3.648646    0.368478
C     -1.629671    -3.582958    -0.771854
H     -2.503416    -3.108797    -1.212302
H     -1.602929    -4.672912    -0.794589
P     -2.518615    0.214258    0.629565
H     -3.253564    -0.720697    1.392106
C     -3.593669    1.402986    0.163631
H     -3.292680    2.255822    -0.440333
H     -4.642587    1.357296    0.458141
P     0.413634    -0.607971    2.767722
H     -0.344246    -1.615553    3.405472
C     1.488764    -0.032523    3.907118
H     2.211451    0.750444    3.689956
H     1.488070    -0.427771    4.923479
P     -0.330807    0.310199    -2.383397
H     -1.563276    -0.023899    -2.987362
C     0.615017    0.988441    -3.578894
H     1.625163    1.344739    -3.391918
H     0.241570    1.091555    -4.598146
