25

Fe     0.001851    -0.003645    0.091868
P     -0.385016    2.656332    -0.434656
H     -1.525136    3.004832    -1.186115
H     0.642319    3.317996    -1.136488
H     -0.527735    3.461763    0.712868
P     2.686348    0.477631    0.374739
H     3.525673    0.439776    -0.756191
H     3.343209    -0.400454    1.259980
H     2.999757    1.733452    0.932469
P     0.369169    -2.676687    0.542220
H     -0.177497    -3.563384    -0.406590
H     -0.196974    -3.144579    1.744979
H     1.698539    -3.133266    0.642324
P     -2.663260    -0.431123    -0.375090
H     -3.513717    0.187005    0.563520
H     -3.110952    -1.767198    -0.337460
H     -3.197523    0.020710    -1.598198
C     -0.522624    0.497822    3.267566
O     -0.283104    0.312871    2.068868
H     -1.558052    0.507099    3.635512
H     0.298524    0.656067    3.980436
P     0.442449    -0.457707    -2.524743
H     0.612331    0.680468    -3.338260
H     -0.555780    -1.168721    -3.220091
H     1.597184    -1.207045    -2.826053
