15

Fe     0.123608    0.107248    0.051709
C     -0.271632    2.378402    -0.380543
O     -0.453452    3.478790    -0.524782
C     2.413400    0.438063    -0.423292
O     3.510670    0.609009    -0.602469
C     0.497963    -2.199515    0.257120
O     0.692427    -3.294148    0.427137
C     -2.192580    -0.239462    0.393020
O     -3.283913    -0.393926    0.618616
O     0.385060    0.378473    1.757874
H     0.499092    0.523214    2.722476
C     -0.488905    -0.452739    -3.118501
O     -0.170796    -0.210433    -1.954250
H     0.247992    -0.344559    -3.926325
H     -1.508964    -0.778386    -3.367162
