29

Fe     0.001969    0.000107    0.024297
P     -0.420822    2.671189    0.443121
H     -1.758903    3.098708    0.556369
H     0.153518    3.202361    1.614983
H     0.080235    3.534770    -0.550822
P     2.682720    0.367406    0.438106
H     3.152753    1.695796    0.464654
H     3.196713    -0.149909    1.643456
H     3.530290    -0.219721    -0.522207
P     0.421914    -2.680462    -0.338492
H     1.689708    -3.187013    0.011246
H     -0.438808    -3.535681    0.377805
H     0.273920    -3.148307    -1.659104
P     -2.667252    -0.364010    -0.461216
H     -3.042417    -1.582415    -1.061904
H     -3.518497    -0.314993    0.660364
H     -3.260455    0.577615    -1.325348
C     -0.308450    -0.350187    2.134614
N     -0.475311    -0.539347    3.266365
C     -0.684308    -0.775490    4.669488
H     0.262002    -1.096343    5.114640
H     -1.441360    -1.556894    4.782900
H     -1.026190    0.154319    5.133367
C     0.308660    0.353290    -2.086860
N     0.469704    0.542454    -3.219510
C     0.668579    0.776498    -4.624508
H     0.260615    -0.072282    -5.181100
H     1.741432    0.874322    -4.814359
H     0.148106    1.697695    -4.902167
