25

Fe     0.028286    -0.181194    0.014927
C     1.131549    2.543896    0.416552
O     0.192434    1.738194    0.340177
H     2.176999    2.230502    0.295071
H     0.898466    3.599047    0.613823
C     2.732635    -1.249150    -0.552012
O     1.955533    -0.337179    -0.235298
H     2.370622    -2.252313    -0.812049
H     3.809922    -1.035661    -0.568199
C     -1.083447    -2.896374    -0.386080
O     -0.136965    -2.099716    -0.306532
H     -2.126069    -2.570861    -0.273664
H     -0.859866    -3.954684    -0.576068
C     -2.683941    0.869695    0.591133
O     -1.900069    -0.031410    0.260593
H     -3.759561    0.647653    0.605399
H     -2.329223    1.871537    0.865576
N     0.202085    -0.588547    1.999116
H     1.094270    -1.034210    2.240938
H     -0.528109    -1.216369    2.352338
H     0.151366    0.254883    2.581469
N     -0.151253    0.226465    -1.968705
H     -1.043769    0.675545    -2.202524
H     -0.108235    -0.617312    -2.551292
H     0.578490    0.851514    -2.328069
