29

Fe     0.000312    0.002361    -0.003488
N     -0.231817    2.177404    0.367093
H     -1.207818    2.434615    0.549422
H     0.296901    2.518105    1.177983
H     0.054644    2.759217    -0.428109
N     2.181368    0.281465    -0.308362
H     2.437151    1.273950    -0.345635
H     2.756207    -0.122154    0.439737
H     2.530026    -0.118644    -1.186610
N     0.234902    -2.174820    -0.363428
H     1.214410    -2.434862    -0.521083
H     -0.072996    -2.754729    0.425104
H     -0.274539    -2.515352    -1.186677
N     -2.182014    -0.276210    0.292165
H     -2.442681    -1.268052    0.305566
H     -2.528987    0.104456    1.179674
H     -2.754721    0.147899    -0.446166
C     0.326848    -0.330674    2.152643
N     0.495618    -0.506539    3.285991
C     0.706166    -0.725001    4.692928
H     1.455530    -1.513083    4.814278
H     -0.243372    -1.029313    5.143661
H     1.058896    0.208779    5.141253
C     -0.325915    0.332164    -2.159862
N     -0.495751    0.504749    -3.293554
C     -0.707661    0.717854    -4.701038
H     -1.336467    -0.091411    -5.084573
H     0.264369    0.716064    -5.203589
H     -1.204654    1.683334    -4.836179
