29

Fe     0.000562    0.000823    -0.002301
N     -0.193600    2.005518    0.366045
H     -1.169298    2.259584    0.554598
H     0.331472    2.328373    1.186300
H     0.088308    2.598410    -0.422379
N     2.020843    0.235995    -0.236325
H     2.297978    1.221098    -0.163417
H     2.581219    -0.256159    0.468282
H     2.362873    -0.065786    -1.155304
N     0.195576    -2.004611    -0.367159
H     1.173617    -2.260914    -0.539711
H     -0.099909    -2.596273    0.417251
H     -0.317258    -2.327242    -1.195227
N     -2.020019    -0.233609    0.228128
H     -2.300996    -1.215581    0.131298
H     -2.360306    0.047563    1.154238
H     -2.579053    0.276942    -0.464416
C     0.267636    -0.328259    1.955298
N     0.422904    -0.518931    3.087377
C     0.616661    -0.757388    4.498492
H     1.352412    -1.557691    4.617655
H     -0.341478    -1.052159    4.935649
H     0.978815    0.165312    4.960531
C     -0.266739    0.329028    -1.959905
N     -0.422957    0.517869    -3.092153
C     -0.618424    0.752769    -4.503532
H     -1.269449    -0.031752    -4.899427
H     0.356256    0.725208    -4.998811
H     -1.083209    1.734443    -4.631443
