32

Fe     0.032376    -0.008196    0.044091
N     0.346349    2.032358    0.307550
C     0.541865    3.165813    0.485297
C     0.783872    4.577550    0.706284
H     0.782860    5.110089    -0.253377
H     -0.002275    4.994579    1.348478
H     1.757449    4.717599    1.192724
N     2.060256    -0.337844    0.307366
C     3.205672    -0.519834    0.405709
C     4.631109    -0.745525    0.529092
H     5.180146    0.068537    0.038829
H     4.912571    -0.782242    1.589339
H     4.900046    -1.697204    0.053381
N     -0.250465    -2.036290    -0.313618
C     -0.387173    -3.178993    -0.488254
C     -0.557675    -4.601584    -0.705209
H     0.235353    -4.974994    -1.365706
H     -0.504673    -5.133068    0.253654
H     -1.533200    -4.794769    -1.169003
N     -2.001575    0.322646    -0.282343
C     -3.143198    0.494959    -0.427063
C     -4.565137    0.710928    -0.610088
H     -4.730044    1.495424    -1.359434
H     -5.042780    -0.216514    -0.950214
H     -5.020636    1.021303    0.338833
N     -0.349094    -0.234548    2.187534
H     -1.174075    0.285837    2.499244
H     0.443309    0.094135    2.746992
H     -0.502392    -1.215726    2.438096
S     0.522241    0.376917    -2.589816
H     -0.355290    -0.470357    -3.173550
H     -0.215782    1.479029    -2.852155
