25

Fe     0.027072    -0.202636    0.005021
N     0.234867    1.820238    0.370382
H     0.020408    2.426202    -0.430288
H     1.195020    2.070213    0.631691
H     -0.348891    2.177668    1.135391
N     2.069528    -0.396095    -0.222759
H     2.440872    0.117456    -1.031068
H     2.354465    -1.368515    -0.383252
H     2.644709    -0.081431    0.567224
N     -0.178724    -2.248067    -0.249988
H     0.390636    -2.826166    0.379197
H     0.058256    -2.575367    -1.193214
H     -1.141432    -2.572540    -0.101364
N     -2.021444    0.026410    0.169181
H     -2.390186    -0.160906    1.109150
H     -2.580827    -0.566552    -0.455037
H     -2.325501    0.984250    -0.037534
P     0.332491    -0.597241    2.485237
H     1.470562    -1.351497    2.837043
H     -0.711204    -1.308462    3.111751
H     0.455761    0.548616    3.296824
P     -0.314391    0.158087    -2.476395
H     0.785356    0.678589    -3.189248
H     -1.350596    1.051769    -2.816958
H     -0.646205    -0.990119    -3.224339
