17

Fe     -0.035928    0.040093    -0.047960
C     0.315831    2.004571    -0.296477
O     0.509974    3.097241    -0.462392
C     1.928243    -0.197190    0.283857
O     3.028965    -0.336058    0.451895
C     -0.408510    -1.909325    0.237505
O     -0.612476    -3.003373    0.381088
C     -2.005326    0.311607    -0.346534
O     -3.099413    0.469206    -0.539483
N     -0.289961    0.301150    1.958859
H     0.313779    -0.308174    2.532342
H     -1.252601    0.109220    2.273165
H     -0.082912    1.262049    2.269171
C     0.428359    -0.466913    -3.104648
O     0.235868    -0.250225    -1.898747
H     -0.030160    0.195970    -3.860130
H     1.056261    -1.319844    -3.418324
