31

Fe     -0.122048    -0.120301    -0.056108
C     -0.216912    2.115023    -0.341164
H     0.772852    2.564108    -0.474073
P     -1.416667    3.234292    -0.480621
H     -2.757085    2.852367    -0.394545
H     -1.260692    4.590467    -0.816966
C     2.112540    -0.215306    0.237198
H     2.560733    0.774098    0.375545
P     3.231622    -1.415562    0.374678
H     2.849398    -2.755471    0.282173
H     4.586438    -1.261273    0.717295
C     -0.407727    -2.355851    -0.152742
H     -0.544968    -2.805421    0.836199
P     -0.540419    -3.474473    -1.353897
H     -0.447947    -3.091246    -2.693523
H     -0.877079    -4.830889    -1.200639
C     -2.357416    -0.406068    0.033853
H     -2.803643    -0.540932    -0.956925
P     -3.479775    -0.542729    1.231056
H     -3.100899    -0.453674    2.572145
H     -4.835458    -0.879837    1.072441
C     0.158182    -0.026800    2.180183
H     0.291512    -1.016657    2.628878
P     0.292253    1.172900    3.300196
H     0.204294    2.513069    2.917837
H     0.625444    1.017608    4.657236
C     -0.019922    0.165548    -2.290533
H     -1.007506    0.302092    -2.743335
P     1.184685    0.301541    -3.405081
H     2.523208    0.210024    -3.017822
H     1.035180    0.638378    -4.761860
