37

Fe     0.000594    0.002359    0.000356
C     -0.000126    3.249768    0.001701
N     0.000586    2.087689    0.000770
C     -0.000919    4.699819    0.003087
H     -0.313039    5.072702    -0.980063
H     1.006376    5.072494    0.225066
H     -0.697125    5.070926    0.765059
C     3.248086    -0.001454    0.001628
N     2.086012    0.001122    0.001073
C     4.698074    -0.005854    0.002208
H     5.074485    1.024258    0.002021
H     5.068815    -0.523608    -0.890882
H     5.068101    -0.523037    0.895926
C     -0.003265    -3.245178    0.000230
N     -0.000589    -2.083100    0.000348
C     -0.007695    -4.695154    0.000102
H     1.022406    -5.071553    0.006646
H     -0.519459    -5.065458    -0.896618
H     -0.530969    -5.065570    0.890104
C     -3.246865    0.001940    -0.002146
N     -2.084784    0.002533    -0.000658
C     -4.696909    0.001007    -0.004235
H     -5.069780    -0.741430    0.711825
H     -5.067028    -0.249581    -1.005910
H     -5.070494    0.992530    0.278715
C     0.000831    0.002249    2.200374
N     0.001926    0.001376    3.358599
C     0.003101    -0.000505    4.793587
H     0.610610    -0.839401    5.143272
H     -1.026292    -0.107883    5.145496
H     0.425815    0.943985    5.146217
C     0.001447    0.001879    -2.199768
N     0.002502    0.000403    -3.357999
C     0.004294    -0.002349    -4.792992
H     -0.603056    -0.841021    -5.143472
H     1.034342    -0.110675    -5.142681
H     -0.416979    0.942210    -5.147137
