23

Fe     -0.219350    -0.158549    -0.104088
C     -0.651937    2.982948    -0.708286
O     -0.565022    1.786515    -0.409679
H     -0.549142    3.309245    -1.752820
H     -0.838949    3.733119    0.073004
C     2.858617    -0.244986    0.250637
O     1.743036    0.273320    0.120168
H     2.976296    -1.331789    0.363956
H     3.748583    0.399345    0.255306
C     -0.335213    -3.239540    0.299898
O     0.219862    -2.138370    0.196305
H     -1.425046    -3.344732    0.207292
H     0.277087    -4.132685    0.484675
C     -3.383280    -0.287998    0.266616
O     -2.229851    -0.648486    0.003583
H     -4.221046    -0.966549    0.054096
H     -3.594113    0.693613    0.713944
S     -0.541322    0.258251    2.637286
H     0.493084    1.066185    2.968217
H     -0.041276    -0.822732    3.280499
S     -0.433032    -0.604862    -2.778168
H     0.576589    0.113635    -3.324079
H     0.150505    -1.801556    -3.022786
