21

Fe     -0.104046    -0.208315    0.019957
S     -0.258168    2.536792    -0.350100
H     -1.225537    2.764756    -1.268923
H     0.764426    2.892332    -1.163189
S     2.568457    0.132991    -0.322565
H     2.842578    -0.664999    -1.381143
H     3.132266    -0.697680    0.586188
S     0.241450    -2.840452    0.407793
H     -0.622746    -3.493330    -0.403779
H     -0.453139    -3.087432    1.542778
S     -2.767292    0.099563    0.506050
H     -3.347161    -1.073175    0.157301
H     -2.939388    -0.083017    1.835655
C     0.461295    0.703181    3.024465
O     0.239448    0.095702    1.967386
H     0.628367    0.134535    3.949835
H     0.493485    1.801850    3.051198
C     -0.673095    -0.706093    -3.121241
O     -0.425375    -0.518184    -1.922774
H     0.141545    -0.906820    -3.830937
H     -1.709044    -0.674550    -3.486947
