51

Fe     0.000575    0.033303    -0.000463
O     0.006891    0.074681    2.173292
H     0.191823    0.859111    2.723732
H     -0.098044    -0.681621    2.781339
O     -0.005772    0.084817    -2.173519
H     -0.192504    0.871211    -2.720546
H     0.095873    -0.669805    -2.784158
C     0.000150    4.968310    0.002984
C     1.076278    4.255260    0.541837
C     1.044962    2.868461    0.519364
N     -0.000022    2.167781    0.003249
C     -1.044882    2.868591    -0.513036
C     -1.076096    4.255344    -0.535744
H     0.000315    6.054857    0.002836
H     1.933106    4.765397    0.970356
H     1.871311    2.288526    0.910829
H     -1.870962    2.288555    -0.904773
H     -1.932814    4.765588    -0.964313
C     4.986844    -0.092815    -0.018572
C     4.265924    -0.515514    1.102544
C     2.878520    -0.461490    1.071242
N     2.188956    -0.012564    -0.007845
C     2.894602    0.390764    -1.095113
C     4.282431    0.365396    -1.135949
H     6.073043    -0.119033    -0.020754
H     4.769534    -0.882493    1.991329
H     2.289495    -0.776686    1.922723
H     2.317684    0.736442    -1.942924
H     4.799074    0.699978    -2.029411
C     -0.000295    -4.898741    -0.002450
C     -0.982201    -4.186423    0.694066
C     -0.957313    -2.799737    0.662449
N     -0.000375    -2.100857    -0.002631
C     0.956622    -2.799725    -0.667591
C     0.981525    -4.186449    -0.699087
H     -0.000203    -5.985043    -0.002327
H     -1.763155    -4.696879    1.248466
H     -1.721892    -2.220121    1.165981
H     1.721364    -2.220148    -1.170972
H     1.762474    -4.696904    -1.253515
C     -4.986526    -0.092361    0.018180
C     -4.265780    -0.513163    -1.103732
C     -2.878359    -0.459376    -1.072418
N     -2.188594    -0.012231    0.007233
C     -2.894120    0.389444    1.095170
C     -4.281947    0.363974    1.136207
H     -6.072713    -0.118605    0.020487
H     -4.769525    -0.878487    -1.993115
H     -2.289579    -0.773521    -1.924458
H     -2.317196    0.733930    1.943457
H     -4.798478    0.697090    2.030283
