19

Fe     0.072987    0.050116    0.014127
O     0.498624    2.018050    -0.205003
P     0.474876    3.328888    -1.013277
H     1.040225    4.235847    -0.047931
O     2.033043    -0.375076    0.407951
P     3.483709    0.105343    0.206970
H     4.198966    -0.999741    0.788655
O     -0.392355    -1.925437    0.273045
P     0.150389    -3.358017    0.445913
H     -1.079219    -4.062099    0.703911
O     -1.887409    0.407099    -0.492121
P     -3.331633    0.242683    0.021448
H     -4.061189    0.737697    -1.116422
O     -0.336440    0.382946    1.971166
P     -0.130011    0.241864    3.490311
H     -1.133334    1.155556    3.974175
O     0.481259    -0.253570    -1.966829
P     -0.278780    -0.585424    -3.268418
H     0.799929    -0.486351    -4.215285
