22

Fe     -0.007745    -0.003548    -0.095197
O     0.329516    2.013534    0.123606
H     1.200428    2.456474    0.039824
H     -0.359488    2.709903    0.074221
O     2.020697    -0.341650    -0.076728
H     2.633470    -0.426231    -0.839030
H     2.565367    -0.425232    0.735982
O     -0.315461    -2.018205    0.146549
H     0.370626    -2.710105    0.033915
H     -1.188685    -2.464269    0.126093
O     -2.014244    0.318260    0.129924
H     -2.440915    0.419249    1.007722
H     -2.713963    0.408887    -0.552823
O     0.093807    -0.006151    2.029302
H     0.291082    0.761734    2.606893
H     -0.011926    -0.780622    2.623092
C     -0.064787    0.007998    -2.214976
N     -0.071988    0.012033    -3.373945
C     -0.079859    0.016471    -4.808492
H     -0.702246    -0.815931    -5.155639
H     0.951485    -0.107902    -5.160630
H     -0.485171    0.975304    -5.150983
