33

Fe     -0.066215    0.066824    -0.005522
N     0.216654    1.961762    -0.308349
C     0.317856    3.101237    -0.492876
C     0.445421    4.528230    -0.726367
H     0.317460    4.739984    -1.795092
H     -0.321323    5.067596    -0.157504
H     1.437349    4.871154    -0.408381
N     1.844561    -0.214056    -0.298462
C     2.983215    -0.315181    -0.499086
C     4.407607    -0.442973    -0.751394
H     4.651849    0.005324    -1.722924
H     4.972655    0.079080    0.030874
H     4.695907    -1.501051    -0.760534
N     -0.371282    -1.832293    0.314284
C     -0.621556    -2.941990    0.542539
C     -0.934882    -4.331128    0.827002
H     -0.041558    -4.953867    0.697486
H     -1.294333    -4.425397    1.859313
H     -1.719856    -4.680766    0.144618
N     -1.959947    0.366796    0.279892
C     -3.082315    0.598967    0.449680
C     -4.488150    0.890464    0.662597
H     -4.937478    1.245510    -0.273134
H     -5.012054    -0.014895    0.991371
H     -4.592977    1.667025    1.429876
C     0.947585    0.029859    2.764864
O     0.167429    0.421697    1.896514
H     0.838817    0.435584    3.778918
H     1.735651    -0.704708    2.556151
C     -0.120615    -0.956171    -2.772678
O     -0.429091    -0.143837    -1.900812
H     -0.505084    -0.795953    -3.788206
H     0.518998    -1.823073    -2.564579
