37
03/24/2023 16:57, XYZ structure generated by mol3D Class, molSimplify
Fe     0.039862    -0.024911    -0.026383
N     0.337091    2.157101    0.359217
N     2.244903    0.149203    -0.098215
C     2.655047    1.594396    -0.228142
C     1.780775    2.431897    0.687216
H     2.006052    3.497520    0.571666
H     1.944832    2.177429    1.739394
H     2.526402    1.882934    -1.276010
H     3.714501    1.717172    0.019462
H     0.084442    2.689445    -0.480681
H     -0.257631    2.542746    1.098865
H     2.655563    -0.236151    0.759841
H     2.677957    -0.392305    -0.853191
N     0.115196    -2.229671    0.150127
N     -0.345571    -0.319514    2.155822
C     -0.672036    -1.763272    2.432087
C     0.244518    -2.637632    1.596001
H     -0.002242    -3.697137    1.720061
H     1.292115    -2.507808    1.884990
H     -1.723971    -1.928760    2.177532
H     -0.556548    -1.987295    3.497986
H     -0.741570    -2.642559    -0.235723
H     0.871704    -2.661875    -0.389915
H     0.493605    -0.065045    2.688397
H     -1.086362    0.274648    2.540120
N     -2.141877    0.359115    -0.323088
N     -0.133718    -0.097538    -2.231139
C     -1.578937    -0.228550    -2.641037
C     -2.417054    0.686406    -1.766949
H     -3.482597    0.569944    -1.992114
H     -2.163409    1.738736    -1.931318
H     -1.866657    -1.276608    -2.512102
H     -1.702040    0.018707    -3.700533
H     -2.674070    -0.480694    -0.069840
H     -2.527560    1.099116    0.271178
H     0.251384    0.760194    -2.642707
H     0.407989    -0.852839    -2.663381
