25

Fe     -0.177863    -0.269582    -0.021663
C     -0.192166    2.931463    -0.503033
O     0.094636    1.739976    -0.367510
H     0.599515    3.657149    -0.740664
H     -1.226139    3.290045    -0.392542
C     2.992993    -0.919390    -0.492503
O     1.802338    -0.650660    -0.320280
H     3.344494    -1.960917    -0.447353
H     3.720256    -0.118523    -0.693651
C     -0.765708    -3.436782    0.417063
O     -0.529624    -2.230383    0.308405
H     -0.679048    -3.932079    1.395008
H     -1.065567    -4.030242    -0.458934
C     -3.337815    0.147726    0.616237
O     -2.155281    0.026022    0.283399
H     -4.128664    0.162935    -0.147670
H     -3.617043    0.245162    1.675631
N     0.382690    0.173296    2.030909
H     0.730990    -0.659919    2.517200
H     -0.396122    0.518192    2.602184
H     1.124129    0.877007    2.111894
N     -0.374702    -0.435596    -2.179972
H     -1.328066    -0.231165    -2.498598
H     -0.164845    -1.376369    -2.529951
H     0.239455    0.200114    -2.699854
