25

Fe     -0.027449    -0.211032    -0.002143
N     -0.299795    1.972363    0.200642
H     -1.283910    2.250554    0.113579
H     0.198262    2.537694    -0.497221
H     -0.003848    2.349206    1.108650
N     2.161330    0.059039    0.009475
H     2.429198    1.046478    0.090717
H     2.640996    -0.273651    -0.835389
H     2.640901    -0.406207    0.788836
N     0.243746    -2.390519    -0.241761
H     1.233858    -2.660763    -0.249072
H     -0.136583    -2.770436    -1.116497
H     -0.178933    -2.958947    0.501714
N     -2.215848    -0.489660    0.031293
H     -2.479344    -1.481447    0.011030
H     -2.714285    -0.069923    -0.762336
H     -2.678297    -0.114006    0.867391
P     0.029631    -0.513255    2.873227
H     0.102281    -1.836521    3.354981
H     -1.078943    0.006862    3.573128
H     1.118087    0.107102    3.520919
P     -0.060015    0.112942    -2.868917
H     -1.288952    -0.159777    -3.504339
H     0.840052    -0.701681    -3.587094
H     0.250297    1.404546    -3.341232
