21

Fe     -0.027603    -0.176321    -0.015146
O     0.238684    1.703668    0.346334
H     -0.329564    2.398236    -0.056683
H     1.166712    2.026022    0.301434
O     1.925694    -0.319535    -0.236422
H     2.347972    -0.319859    -1.121839
H     2.504468    -0.840883    0.360377
O     -0.292117    -2.057328    -0.376668
H     0.266048    -2.749363    0.044627
H     -1.221698    -2.377178    -0.342836
O     -1.979749    -0.031313    0.208216
H     -2.401138    -0.028866    1.093962
H     -2.561321    0.483375    -0.391447
C     0.404987    0.039509    2.909548
O     0.263002    -0.609014    1.860412
H     0.382328    1.138065    2.931503
H     0.554560    -0.524826    3.841970
C     -0.456515    -0.389116    -2.941351
O     -0.322559    0.257611    -1.890154
H     -0.415626    -1.486923    -2.966846
H     -0.617196    0.175936    -3.871568
