31

Fe     -0.022346    0.010859    0.110455
P     0.187758    2.357971    -0.297794
H     0.537495    3.128810    0.832264
H     -0.968065    3.033406    -0.739613
O     1.343018    2.548376    -1.415411
H     1.538787    3.459813    -1.720185
P     2.311812    -0.185269    0.435309
H     2.833193    0.211723    1.680950
H     3.136227    0.512401    -0.470174
O     2.613697    -1.773325    0.237999
H     3.532215    -2.088708    0.374373
P     -0.128308    -2.324362    0.612062
H     0.579495    -2.709079    1.765466
H     0.408123    -3.170992    -0.375150
O     -1.684049    -2.721537    0.820243
H     -1.891728    -3.656971    1.026197
P     -2.350226    0.255758    -0.241325
H     -3.132696    -0.910738    -0.328072
H     -2.738120    0.978988    -1.383583
O     -2.844501    1.108297    1.058439
H     -3.803866    1.289446    1.149640
P     -0.514086    0.343165    2.428242
H     -1.586088    -0.421020    2.924072
H     -0.874982    1.653190    2.794859
O     0.816932    -0.055981    3.261185
H     0.783976    0.022293    4.237726
P     0.346974    -0.389812    -2.215420
H     0.294526    -1.741963    -2.615215
H     1.597774    0.006769    -2.728528
O     -0.819612    0.404644    -3.008821
H     -0.814027    0.364439    -3.988742
