27

Fe     -0.455028    0.044165    0.010230
N     -0.064427    2.181786    0.351179
C     0.054705    3.315163    0.541459
C     0.201136    4.743808    0.782924
H     1.222584    4.963534    1.108803
H     -0.010717    5.300384    -0.135147
H     -0.496721    5.060172    1.564458
N     1.695083    -0.282669    -0.137845
C     2.834430    -0.444130    -0.242980
C     4.270026    -0.645229    -0.377572
H     4.527282    -1.678108    -0.124165
H     4.577195    -0.440380    -1.407794
H     4.805418    0.029294    0.298226
N     -0.746245    -2.122576    -0.325200
C     -0.955978    -3.246060    -0.494343
C     -1.223310    -4.661598    -0.709784
H     -1.574228    -5.120817    0.219441
H     -1.988605    -4.780080    -1.483159
H     -0.308693    -5.167217    -1.034846
N     -2.710755    0.442140    0.095318
C     -3.843510    0.671526    0.113805
C     -5.271461    0.963092    0.134332
H     -5.840029    0.050572    -0.068803
H     -5.562339    1.352408    1.114797
H     -5.509601    1.706097    -0.632683
F     -0.658918    -0.234609    1.738894
F     -0.693675    0.320987    -1.714838
