53

Fe     0.014347    0.035971    -0.029616
C     0.007227    4.992383    0.326193
C     1.086052    4.320590    -0.255598
C     1.056241    2.933316    -0.328676
N     0.014264    2.198053    0.135650
C     -1.031962    2.858094    0.694170
C     -1.068991    4.241965    0.809107
H     0.004936    6.075995    0.401517
H     1.943619    4.861049    -0.643383
H     1.885200    2.380503    -0.755294
H     -1.857881    2.248884    1.042574
H     -1.930416    4.720691    1.263673
C     4.921976    -0.491986    0.020453
C     4.289508    0.268684    1.008821
C     2.911754    0.426865    0.955510
N     2.151353    -0.129782    -0.020633
C     2.770091    -0.871074    -0.974209
C     4.143597    -1.067874    -0.988223
H     5.998667    -0.633813    0.036472
H     4.853629    0.735151    1.809930
H     2.392628    1.017146    1.701180
H     2.136945    -1.315708    -1.732917
H     4.592032    -1.666207    -1.774637
C     0.028360    -4.898748    -0.112528
C     0.537239    -4.207447    0.991000
C     0.505951    -2.819341    0.988844
N     -0.010281    -2.110674    -0.044308
C     -0.509667    -2.782182    -1.110960
C     -0.501168    -4.168799    -1.180997
H     0.042614    -5.984486    -0.138426
H     0.954890    -4.733845    1.843111
H     0.890048    -2.247651    1.824895
H     -0.920429    -2.185323    -1.916875
H     -0.908298    -4.664217    -2.056408
C     -4.917419    -0.307256    -0.245872
C     -4.177558    -1.040940    0.686174
C     -2.795967    -0.907253    0.705520
N     -2.132505    -0.077240    -0.138807
C     -2.857247    0.637001    -1.035473
C     -4.239283    0.546713    -1.121374
H     -5.998795    -0.399809    -0.290775
H     -4.661491    -1.714489    1.385935
H     -2.192005    -1.477324    1.401434
H     -2.307028    1.302414    -1.689885
H     -4.772918    1.134897    -1.860754
C     -0.202074    0.644348    3.213915
O     -0.024107    0.004075    2.181460
H     -0.445660    1.716173    3.191385
H     -0.114880    0.145541    4.189409
C     0.163495    0.929139    -3.126047
O     0.083664    0.130103    -2.195898
H     0.200215    2.013776    -2.951418
H     0.198819    0.559231    -4.159848
