25

Fe     0.052107    -0.072083    -0.550751
C     0.648614    2.809433    0.470204
O     0.356984    2.025997    -0.431007
H     0.812612    2.462862    1.501176
H     0.745735    3.878335    0.238410
C     3.088569    -0.584884    -0.336503
O     2.079334    -0.384444    -1.010531
H     3.047940    -0.631903    0.761672
H     4.052189    -0.719761    -0.844889
C     -0.322106    -3.063972    0.263595
O     -0.301754    -2.150814    -0.558922
H     -0.117151    -2.874729    1.327440
H     -0.548897    -4.083889    -0.073822
C     -2.763916    0.377372    0.626499
O     -2.021691    0.236594    -0.343749
H     -2.379766    0.345626    1.656734
H     -3.837289    0.536191    0.459283
N     0.541746    -0.294997    2.585028
C     0.362433    -0.202901    1.430657
N     -0.259989    0.157791    -2.603853
C     -0.436862    0.290200    -3.742254
C     -0.657455    0.454847    -5.166396
H     0.269526    0.785789    -5.648364
H     -0.970862    -0.499889    -5.604093
H     -1.440047    1.203230    -5.335379
