21

Mn     -0.020568    -0.000903    -0.049830
C     -0.192170    2.950146    -0.589302
O     0.416317    1.916250    -0.319820
H     -1.276200    2.954900    -0.760508
H     0.370255    3.888250    -0.662251
C     2.735795    -1.048724    0.551578
O     1.933232    -0.169197    0.245927
H     2.418660    -2.084040    0.731136
H     3.795555    -0.784269    0.647151
C     -0.850237    -2.990494    0.234331
O     -0.173034    -1.965357    0.279916
H     -1.897229    -2.986145    -0.096132
H     -0.401317    -3.946583    0.529324
C     -3.107205    0.083999    -0.403729
O     -1.935342    0.457347    -0.399702
H     -3.396173    -0.935345    -0.114491
H     -3.895980    0.786283    -0.700947
C     -0.282394    0.353507    1.878656
O     -0.424276    0.574672    2.978404
C     0.286128    -0.322518    -1.976440
O     0.486451    -0.500140    -3.074987
