33

Mn     -0.224302    0.046671    0.046111
N     0.146209    2.217900    -0.332469
C     0.296076    3.359592    -0.456755
C     0.483973    4.795174    -0.612645
H     1.424255    4.994381    -1.136845
H     -0.343480    5.218696    -1.191071
H     0.514813    5.274285    0.371328
N     1.969348    -0.277630    0.368713
C     3.092667    -0.402826    0.623566
C     4.504204    -0.557790    0.946156
H     4.614747    -0.853028    1.994733
H     4.951701    -1.328154    0.309759
H     5.029248    0.389465    0.785692
N     -0.589226    -2.133679    0.416337
C     -0.782481    -3.275349    0.459118
C     -1.025853    -4.710247    0.506807
H     -0.582900    -5.136375    1.412808
H     -2.103086    -4.905858    0.508406
H     -0.578053    -5.190529    -0.369448
N     -2.405164    0.381101    -0.280947
C     -3.518694    0.583405    -0.526764
C     -4.917703    0.839327    -0.838580
H     -5.050401    0.899206    -1.923779
H     -5.542269    0.029927    -0.447100
H     -5.233644    1.785071    -0.386370
C     -0.860376    0.099252    3.238439
O     -0.445981    0.606391    2.207961
H     -1.241593    -0.934218    3.261571
H     -0.861378    0.668517    4.179428
C     0.738585    -0.385542    -3.037774
O     -0.091191    -0.427123    -2.143187
H     1.767447    -0.036086    -2.856620
H     0.474521    -0.698496    -4.058470
