24

Mn     0.089760    -0.013039    -0.119828
C     0.607265    2.967325    0.035346
O     0.361316    1.948438    -0.606497
H     0.661516    2.958291    1.132380
H     0.773534    3.913069    -0.495433
C     2.861444    -1.112201    -0.531199
O     2.090907    -0.187421    -0.279553
H     2.497337    -2.128368    -0.736856
H     3.941959    -0.924021    -0.549678
C     -0.906075    -2.785450    0.563990
O     -0.064045    -1.996592    0.136917
H     -1.842839    -2.433418    1.015349
H     -0.722725    -3.864474    0.493186
C     -2.769220    0.993538    0.157089
O     -1.902697    0.120042    0.172409
H     -2.538717    2.032088    -0.116840
H     -3.803857    0.737186    0.416547
O     0.394960    0.447310    1.879742
H     -0.169073    0.103339    2.594427
H     1.311319    0.401429    2.206622
N     -0.181464    -0.268642    -2.161104
H     -1.164260    -0.284923    -2.442637
H     0.224948    -1.128534    -2.538144
H     0.248717    0.505029    -2.675160
