23

Mn     0.031217    -0.011540    -0.025904
N     -0.188340    2.300615    -0.356221
H     -0.194715    2.555600    0.635035
H     -1.076386    2.635566    -0.731588
H     0.535871    2.864011    -0.803532
N     2.319832    0.323543    0.358580
H     2.751845    1.177369    0.003795
H     3.003040    -0.419370    0.207238
H     2.235699    0.440722    1.372023
N     0.265148    -2.305989    0.372118
H     -0.393353    -2.948781    -0.069081
H     0.063200    -2.312514    1.374482
H     1.185901    -2.734011    0.268911
N     -2.263512    -0.298928    -0.365891
H     -2.799515    0.399226    -0.882066
H     -2.604398    -0.270101    0.597227
H     -2.539309    -1.203366    -0.749223
N     -0.245379    0.309639    1.968257
C     -0.548902    0.421148    3.133388
O     -0.841043    0.533308    4.279722
O     0.243119    -0.564048    -2.272468
H     -0.009670    0.072210    -2.961772
H     1.069666    -0.964296    -2.589517
