37

Mn     0.111020    -0.157675    0.022778
P     0.324952    2.621994    -0.269040
H     1.449373    3.221003    -0.901486
H     0.504453    3.207034    0.998885
N     -1.100061    3.440492    -0.774190
H     -1.412631    3.199121    -1.711464
H     -1.082740    4.455536    -0.681891
P     2.864658    -0.357521    -0.355751
H     3.444227    0.873337    -0.729417
H     3.397081    -1.127250    -1.427980
N     3.771043    -0.678841    1.066743
H     3.535633    -1.559975    1.517446
H     4.783960    -0.611588    0.975083
P     -0.378495    -2.821866    0.407207
H     -0.808007    -3.073697    1.727498
H     0.570856    -3.882200    0.328804
N     -1.777443    -3.196693    -0.478984
H     -2.222783    -4.094372    -0.300896
H     -1.677446    -3.022981    -1.480835
P     -2.573889    0.088988    0.447511
H     -3.004442    -0.751610    1.493910
H     -3.490285    -0.364587    -0.540285
N     -2.995033    1.621931    1.017896
H     -3.956719    1.786869    1.303406
H     -2.607412    2.403502    0.488026
P     0.565592    0.350428    2.674576
H     0.436713    -0.649362    3.679824
H     -0.428553    1.227374    3.155671
N     1.979916    1.258655    2.900356
H     2.153935    1.635520    3.829392
H     2.814644    0.814642    2.515414
P     -0.349905    -0.515943    -2.715044
H     0.353264    0.205765    -3.720872
H     -1.633879    -0.014794    -3.018694
N     -0.560982    -2.140043    -3.240493
H     0.288316    -2.699999    -3.200131
H     -0.982344    -2.251273    -4.162157
