22

Mn     0.134762    -0.109476    -0.044391
O     0.359050    1.890919    0.337852
H     0.646699    2.579764    -0.284860
H     0.617631    2.157928    1.237973
O     2.146677    -0.515514    -0.257370
H     2.504728    -0.776958    -1.124052
H     2.826049    0.047080    0.155849
O     -0.326588    -2.119135    -0.242427
H     -0.338770    -2.566934    -1.105909
H     -0.032288    -2.781885    0.406966
O     -1.854154    0.141615    0.517935
H     -2.202043    1.051702    0.520900
H     -2.530139    -0.420431    0.099108
O     0.430157    -0.240224    2.018472
H     1.087173    -0.808424    2.457346
H     -0.404749    -0.335859    2.512774
C     -0.162779    0.147150    -1.994681
N     -0.351243    0.319072    -3.129956
C     -0.593278    0.543001    -4.526439
H     -1.386704    -0.129419    -4.862034
H     0.325293    0.344339    -5.084074
H     -0.900032    1.581972    -4.670729
