25

Mn     -0.018932    -0.192637    0.052917
N     0.114824    1.911429    -0.235927
H     -0.581562    2.474569    0.257874
H     -0.012599    2.117122    -1.230166
H     1.015390    2.333127    0.003753
N     2.079261    -0.405618    -0.212807
H     2.659582    0.306311    0.238197
H     2.297198    -0.339925    -1.210767
H     2.475194    -1.297367    0.093702
N     -0.160003    -2.297590    0.347090
H     0.022260    -2.505453    1.332136
H     0.496702    -2.871826    -0.186542
H     -1.079853    -2.706024    0.164368
N     -2.114679    0.026951    0.314392
H     -2.512243    0.906001    -0.025042
H     -2.332714    -0.003452    1.313928
H     -2.692633    -0.702131    -0.111069
C     0.674365    0.484832    3.052228
O     0.128698    -0.041762    2.085588
H     1.464170    1.241489    2.933001
H     0.378110    0.203960    4.071080
C     -0.718617    -0.880630    -2.939920
O     -0.164389    -0.346119    -1.982420
H     -1.516489    -1.626394    -2.807085
H     -0.422570    -0.619456    -3.964084
