29

Mn     -0.093463    -0.048466    -0.035892
C     -0.302327    2.837235    -0.817336
O     0.303437    1.895973    -0.317830
H     -1.323588    2.729589    -1.209220
H     0.184753    3.818245    -0.876223
C     2.693364    -1.122379    -0.053540
O     1.863588    -0.283276    -0.385835
H     3.738431    -0.995660    -0.359980
H     2.416362    -2.001819    0.543789
C     -1.027918    -2.924585    0.017239
O     -0.258290    -2.013144    0.306735
H     -1.947863    -2.743730    -0.556350
H     -0.799721    -3.949634    0.334292
C     -2.914033    0.083025    1.015244
O     -2.037334    0.362579    0.202923
H     -2.725224    -0.597440    1.857216
H     -3.913551    0.520943    0.906269
N     0.223954    0.284688    1.927377
C     0.486477    0.536732    3.027236
C     0.826611    0.865037    4.404851
H     0.957417    1.947839    4.505329
H     0.030750    0.535692    5.080929
H     1.760739    0.366831    4.685326
N     -0.385014    -0.358588    -2.002496
C     -0.493534    -0.489307    -3.148374
C     -0.624732    -0.649416    -4.589655
H     -1.574669    -0.223691    -4.928542
H     0.199523    -0.135738    -5.096021
H     -0.597060    -1.711691    -4.853981
