25

Mn     -0.000678    0.009536    -0.000082
O     0.407207    2.026222    -0.051083
H     0.218615    2.551404    -0.848084
H     0.123717    2.571297    0.703929
O     2.008185    -0.383866    0.102098
H     2.592947    0.026428    -0.559594
H     2.487739    -0.347926    0.947962
O     -0.409308    -2.008649    0.057383
H     -0.120492    -2.555188    -0.694453
H     -0.217682    -2.529711    0.856306
O     -2.010299    0.402458    -0.112933
H     -2.593734    0.009852    0.560343
H     -2.483323    0.321732    -0.959595
C     -0.078995    0.030688    2.021842
N     -0.075364    0.013578    3.185989
C     -0.058823    -0.001070    4.620813
H     0.556366    -0.837977    4.961705
H     -1.081043    -0.117367    4.988494
H     0.361282    0.941570    4.980607
C     0.077143    -0.016403    -2.022360
N     0.073116    -0.015512    -3.186562
C     0.059330    -0.021227    -4.621135
H     -0.562670    -0.851183    -4.964952
H     1.081196    -0.143797    -4.988038
H     -0.354432    0.925113    -4.978601
