21

Mn     -0.000327    -0.000032    0.000511
N     -0.221277    2.080611    0.368599
H     -1.202193    2.309455    0.552770
H     0.289162    2.437059    1.181937
H     0.041282    2.686999    -0.413852
N     2.089515    0.264843    -0.279786
H     2.324325    1.261416    -0.290995
H     2.687701    -0.139566    0.446499
H     2.449755    -0.092879    -1.169441
N     0.221988    -2.081359    -0.363117
H     1.206513    -2.313444    -0.522044
H     -0.062551    -2.686993    0.412268
H     -0.268803    -2.436212    -1.189147
N     -2.090599    -0.264711    0.274582
H     -2.330718    -1.259917    0.253902
H     -2.448736    0.066265    1.175314
H     -2.686936    0.165481    -0.438328
C     0.290728    -0.302177    1.886360
O     0.470947    -0.482029    2.993236
C     -0.290639    0.302871    -1.885697
O     -0.469071    0.484231    -2.992600
