25

Mn     0.000003    0.000314    -0.000021
O     -0.000020    2.255729    -0.000003
H     0.684171    2.838846    -0.369765
H     -0.684178    2.838878    0.369769
O     2.255093    -0.008508    -0.019921
H     2.858701    0.022964    -0.782062
H     2.823861    -0.021846    0.769411
O     -0.000020    -2.254068    -0.000003
H     0.703291    -2.837093    -0.332378
H     -0.703298    -2.837125    0.332383
O     -2.255094    -0.008510    0.019923
H     -2.858702    0.022965    0.782061
H     -2.823857    -0.021846    -0.769409
C     -0.010845    0.004290    2.292125
N     -0.004837    0.003424    3.453444
C     0.004565    0.000338    4.886373
H     0.611189    -0.839126    5.234783
H     -1.020835    -0.108742    5.247759
H     0.425380    0.944464    5.240865
C     0.010857    0.004289    -2.292132
N     0.004831    0.003418    -3.453436
C     -0.004526    0.000342    -4.886369
H     -0.611193    -0.839098    -5.234720
H     1.020857    -0.108746    -5.247846
H     -0.425396    0.944447    -5.240831
