23

Mn     0.050947    0.018666    -0.070406
C     -0.960183    2.797541    -0.065223
O     -0.131105    1.953190    -0.408546
H     -1.844510    2.520811    0.520975
H     -0.813542    3.843723    -0.357452
C     2.799002    1.039910    -0.698413
O     2.022035    0.165532    -0.310436
H     3.870152    0.815917    -0.764094
H     2.441385    2.038246    -0.980606
C     1.145298    -2.757441    0.184531
O     0.237377    -1.928714    0.273795
H     2.130873    -2.481973    -0.210922
H     0.963836    -3.790816    0.502406
C     -2.712980    -1.014323    0.512554
O     -1.916740    -0.120625    0.225197
H     -2.385402    -2.054139    0.643122
H     -3.773902    -0.768882    0.641121
O     0.295882    0.473687    1.929539
H     -0.112360    -0.090587    2.609847
H     1.199507    0.653551    2.245247
S     -0.243371    -0.394361    -2.509226
H     -1.163936    0.516817    -2.890559
H     -1.098252    -1.435742    -2.598751
