19

Mn     -0.007222    -0.009908    -0.062984
P     -0.461622    2.799836    -0.269770
H     -1.456034    3.358380    0.570830
H     0.580246    3.662088    0.152403
H     -0.808748    3.523782    -1.438365
P     2.803347    0.426110    -0.349733
H     3.320136    1.644665    0.154800
H     3.654807    -0.413454    0.409982
H     3.571943    0.402549    -1.541330
P     0.427817    -2.796261    0.359922
H     1.765134    -3.258463    0.266375
H     0.141821    -3.424829    1.596965
H     -0.132187    -3.794797    -0.474646
P     -2.817976    -0.436350    0.203299
H     -3.316773    -1.662278    -0.301421
H     -3.619183    -0.403287    1.373500
H     -3.650335    0.392548    -0.588275
Cl     0.375773    0.379672    2.243042
Cl     -0.371059    -0.390655    -2.360906
