37

Mn     0.013406    0.012123    -0.019927
C     0.465416    3.107842    0.514851
N     0.292789    1.979229    0.328303
C     0.680317    4.529533    0.750336
H     0.618562    5.080654    -0.193430
H     1.668193    4.690051    1.193974
H     -0.082315    4.912037    1.436552
C     3.105413    -0.503552    0.475803
N     1.976328    -0.321496    0.301594
C     4.527121    -0.733770    0.696482
H     5.031392    0.216620    0.899358
H     4.976341    -1.193203    -0.189739
H     4.668635    -1.399385    1.554166
C     -0.427952    -3.091512    -0.510282
N     -0.256791    -1.959299    -0.345493
C     -0.640926    -4.517567    -0.719820
H     0.311486    -5.051659    -0.640709
H     -1.066474    -4.692807    -1.713030
H     -1.329191    -4.907294    0.037192
C     -3.082398    0.534842    -0.470845
N     -1.950122    0.353283    -0.317773
C     -4.507916    0.763548    -0.667538
H     -5.085143    0.027446    -0.098588
H     -4.760436    0.670908    -1.728643
H     -4.776829    1.767262    -0.322904
C     -0.477560    -0.429851    3.115092
N     -0.294672    -0.264985    1.984873
C     -0.706485    -0.635096    4.539938
H     -1.774692    -0.779723    4.730722
H     -0.361208    0.237668    5.103440
H     -0.160921    -1.519152    4.884968
C     0.281996    0.253745    -1.965763
N     0.441702    0.400112    -3.108779
C     0.636698    0.581301    -4.512577
H     -0.079215    -0.038029    -5.058586
H     1.654928    0.286280    -4.777685
H     0.480967    1.632762    -4.766357
