29

Mn     -0.256311    -0.127759    0.001483
C     0.747722    2.853404    -0.557382
O     -0.147992    2.061097    -0.295286
H     1.784603    2.514897    -0.698298
H     0.528269    3.925766    -0.655701
C     2.758803    -1.144453    -0.386354
O     1.925986    -0.246733    -0.374542
H     2.482319    -2.182543    -0.149790
H     3.806948    -0.926834    -0.635121
C     -1.279143    -3.096872    0.553094
O     -0.369268    -2.317261    0.300635
H     -2.311263    -2.742784    0.690286
H     -1.077647    -4.173146    0.646695
C     -3.287077    0.872276    0.363037
O     -2.443139    -0.015110    0.352617
H     -4.339048    0.635844    0.575599
H     -3.017615    1.919342    0.160445
N     0.110552    0.198898    2.161713
C     0.338489    0.385803    3.282665
C     0.629860    0.619765    4.689302
H     0.450681    -0.295465    5.263155
H     1.677600    0.916245    4.806948
H     -0.013195    1.417193    5.076377
N     -0.600044    -0.455928    -2.162858
C     -0.752313    -0.645492    -3.296075
C     -0.940448    -0.882205    -4.719682
H     -0.230835    -1.640512    -5.067150
H     -1.960396    -1.233765    -4.907626
H     -0.773369    0.046136    -5.276105
