40

Mn     -0.059331    -0.133722    0.079827
N     -0.363463    1.834226    -0.257632
C     -0.561143    2.960648    -0.441371
C     -0.801540    4.381061    -0.663621
H     -0.031245    4.794125    -1.322913
H     -1.783122    4.530160    -1.124889
H     -0.776025    4.915112    0.292007
N     1.908476    0.156404    -0.277695
C     3.032926    0.242687    -0.538148
C     4.448497    0.351300    -0.866403
H     4.601428    1.134447    -1.615872
H     5.023434    0.599725    0.031665
H     4.811862    -0.600299    -1.267737
N     0.249881    -2.110454    0.356368
C     0.480367    -3.241610    0.440159
C     0.771126    -4.665667    0.545269
H     1.377439    -4.984529    -0.308844
H     1.323993    -4.868011    1.468312
H     -0.160279    -5.240821    0.553274
N     -2.029042    -0.449411    0.380437
C     -3.164094    -0.602445    0.553833
C     -4.589945    -0.799436    0.783488
H     -5.165111    -0.014286    0.282254
H     -4.902500    -1.774222    0.395148
H     -4.801048    -0.760411    1.857291
C     0.664407    0.666607    4.827687
C     1.257986    1.486868    3.868020
C     1.024572    1.226878    2.523037
N     0.243870    0.209781    2.098409
C     -0.326889    -0.580095    3.033589
C     -0.143077    -0.386386    4.397320
H     0.827715    0.843549    5.886323
H     1.894831    2.317721    4.152460
H     1.470769    1.842231    1.751426
H     -0.945451    -1.389604    2.666107
H     -0.625493    -1.052381    5.104796
C     -1.064412    -0.200899    -2.779254
O     -0.280281    -0.522589    -1.896606
H     -1.913951    0.468786    -2.582532
H     -0.926025    -0.584940    -3.797876
