29

Mn     -0.000589    -0.003037    0.665040
C     0.427905    2.785253    -0.609027
O     0.431646    2.241092    0.485761
H     0.636245    3.863132    -0.693242
H     0.217859    2.198527    -1.514638
C     2.805694    -0.438512    -0.542586
O     2.234676    -0.488492    0.537888
H     2.239521    -0.181563    -1.449128
H     3.882659    -0.655105    -0.612970
C     -0.428265    -2.791230    -0.608386
O     -0.431934    -2.246908    0.486327
H     -0.218600    -2.204593    -1.514141
H     -0.636251    -3.869190    -0.692378
C     -2.806118    0.433363    -0.543926
O     -2.235960    0.480327    0.537149
H     -3.882840    0.651055    -0.614622
H     -2.239514    0.177864    -1.450595
C     0.000588    0.006982    5.660968
C     -1.083413    0.520527    4.949576
C     -1.045256    0.498469    3.560124
N     0.000143    0.001495    2.865544
C     1.045740    -0.492779    3.561717
C     1.084348    -0.509355    4.951245
H     0.000754    0.009098    6.746815
H     -1.948915    0.932430    5.457472
H     -1.872866    0.882946    2.974176
H     1.873112    -0.879647    2.976995
H     1.949996    -0.919291    5.460479
F     -0.000378    -0.002859    -1.295402
