23

Mn     -0.180832    -0.321788    -0.046439
C     -0.737327    2.430271    1.008621
O     -0.450329    1.664490    0.090706
H     -0.845400    3.501803    0.801253
H     -0.889663    2.066070    2.032395
C     2.801045    0.300548    -0.063468
O     1.751212    -0.077895    0.450031
H     2.841085    0.658608    -1.101371
H     3.728878    0.284568    0.521333
C     0.152514    -3.360322    0.008133
O     0.149633    -2.251432    -0.520486
H     -0.101571    -3.498734    1.068259
H     0.413913    -4.244385    -0.586400
C     -2.973713    -0.555519    -1.123341
O     -2.152348    -0.660902    -0.214639
H     -4.026176    -0.795455    -0.929727
H     -2.678246    -0.221888    -2.126527
O     -0.527579    -0.494101    1.998489
H     -1.287824    -0.989513    2.350212
H     0.217226    -0.602527    2.615718
O     0.017211    -0.012368    -2.081982
H     0.265375    -0.735985    -2.682617
H     0.258721    0.836044    -2.491019
