21

Mn     -0.239393    -0.034025    0.083102
S     0.094665    2.412663    -0.368955
H     1.296539    2.728410    0.163526
H     -0.584012    2.974342    0.656053
S     2.217840    -0.353856    -0.181864
H     2.432442    -1.560475    -0.751318
H     2.574602    0.333109    -1.288798
S     -0.658288    -2.465774    0.431510
H     -1.544785    -2.577689    1.444591
H     0.364596    -2.977604    1.151653
S     -2.680325    0.422444    0.436888
H     -3.020674    1.009806    -0.731986
H     -3.353679    -0.712985    0.146154
C     0.608398    0.137400    3.051634
O     -0.008647    0.365934    2.013213
H     1.394272    -0.629453    3.101642
H     0.373891    0.711220    3.956509
C     -0.523636    -0.954260    -2.843156
O     -0.612660    -0.223391    -1.858707
H     -0.031910    -1.935917    -2.793632
H     -0.946537    -0.624445    -3.799841
