31

Mn     -0.367763    0.079967    0.021062
N     -0.103076    2.052258    -0.289023
C     0.103619    3.174184    -0.489280
C     0.366120    4.583252    -0.746138
H     -0.549374    5.080969    -1.082181
H     0.722379    5.069225    0.168337
H     1.131286    4.681316    -1.523351
N     1.594803    -0.268160    -0.271768
C     2.727616    -0.413195    -0.464031
C     4.151855    -0.595560    -0.706748
H     4.310107    -0.983135    -1.718763
H     4.673149    0.361832    -0.605188
H     4.566300    -1.305746    0.016351
N     -0.620121    -1.896891    0.333220
C     -0.775331    -3.028636    0.527506
C     -0.963628    -4.452375    0.773414
H     -1.961333    -4.762379    0.445884
H     -0.211024    -5.028573    0.224955
H     -0.860075    -4.662397    1.843252
N     -2.333854    0.432808    0.308271
C     -3.466119    0.611152    0.477917
C     -4.889644    0.838034    0.689234
H     -5.248911    0.217247    1.516740
H     -5.070244    1.891410    0.927638
H     -5.447512    0.577691    -0.216536
S     0.140515    0.505328    2.440934
H     -1.036888    0.948770    2.928675
H     0.025059    -0.710535    3.014427
S     -0.707618    -0.219798    -2.447553
H     -2.007253    0.093275    -2.631307
H     -0.912058    -1.547426    -2.572672
