33

Mn     -0.136320    0.040809    -0.022834
N     0.752100    1.828772    0.261999
C     1.262834    2.852138    0.447231
C     1.901368    4.141146    0.677808
H     2.989623    4.033910    0.621624
H     1.576630    4.858817    -0.083210
H     1.630480    4.523187    1.667467
N     1.642922    -0.900948    0.039058
C     2.661134    -1.451814    0.077737
C     3.941636    -2.144844    0.118476
H     3.804119    -3.166769    0.486813
H     4.379686    -2.181787    -0.884441
H     4.629415    -1.615975    0.786693
N     -1.026851    -1.742079    -0.314753
C     -1.559327    -2.752125    -0.511094
C     -2.231544    -4.020682    -0.758875
H     -2.832246    -4.306085    0.110746
H     -2.887378    -3.929085    -1.631010
H     -1.491638    -4.803909    -0.953858
N     -1.921126    0.978797    -0.074529
C     -2.943599    1.523138    -0.099325
C     -4.228973    2.207753    -0.122256
H     -5.037038    1.478319    -0.240481
H     -4.377450    2.750427    0.817402
H     -4.263778    2.918418    -0.954330
P     -0.515271    -0.277601    2.363470
H     -1.598401    -1.097688    2.740450
H     -0.800732    0.852642    3.157253
H     0.496825    -0.858638    3.156799
P     0.218515    0.397834    -2.406908
H     -0.141199    1.650744    -2.946250
H     -0.424567    -0.441122    -3.341412
H     1.538569    0.311109    -2.895038
