23

Mn     -0.233958    -0.253061    0.030732
C     0.221382    2.950333    -0.639818
O     0.060679    1.924705    0.012531
H     0.240966    2.931844    -1.739345
H     0.346327    3.915805    -0.130050
C     3.021251    -0.833830    0.390067
O     1.900378    -0.556171    -0.017675
H     3.202482    -1.063065    1.450592
H     3.875496    -0.857938    -0.301201
C     -0.757160    -3.490678    -0.453316
O     -0.515332    -2.401223    0.050552
H     -0.817307    -4.392299    0.172317
H     -0.918333    -3.597231    -1.536288
C     -3.433842    0.262526    0.707792
O     -2.429449    0.010208    0.051439
H     -4.416315    0.312077    0.217965
H     -3.378927    0.443812    1.791144
S     -0.513615    0.092518    2.760570
H     0.010497    -0.964210    3.414722
H     0.451287    0.956294    3.136034
S     -0.568050    0.103156    -2.703334
H     -1.702310    -0.545402    -3.036218
H     0.247593    -0.714604    -3.399935
