20

Mn     -0.005358    -0.016047    -0.069547
S     -0.454360    2.706319    -0.441633
H     0.381724    3.380223    0.376859
H     0.231218    3.028917    -1.559452
S     2.707607    0.411774    -0.489790
H     3.314173    -0.767322    -0.747133
H     3.280208    0.564159    0.723360
S     0.437865    -2.726441    0.316857
H     1.350222    -2.830880    1.306125
H     -0.577469    -3.234267    1.048129
S     -2.698803    -0.425593    0.463477
H     -3.304919    -0.911372    -0.641366
H     -3.270950    0.794056    0.369582
S     0.369211    0.388676    2.629616
H     -0.221429    1.544611    3.002655
H     -0.554830    -0.392074    3.229350
N     -0.215889    -0.325687    -2.281810
H     -1.107382    0.003715    -2.662716
H     0.507103    0.130565    -2.846018
H     -0.167165    -1.317975    -2.532684
