23

Mn     0.065803    -0.013602    -0.350392
C     -0.479703    2.595398    0.811810
O     -0.217883    1.947686    -0.199547
H     -0.598070    2.097874    1.781639
H     -0.604631    3.682464    0.736211
C     3.010094    -0.111948    -0.439948
O     1.990309    0.333125    0.078693
H     2.966249    -0.821563    -1.277616
H     3.991716    0.202955    -0.064418
C     0.154273    -2.877907    0.002200
O     0.419093    -1.919481    -0.722288
H     -0.319853    -2.721483    0.978723
H     0.404253    -3.890075    -0.338253
C     -2.767310    -0.561136    0.009406
O     -1.881170    -0.284424    -0.795772
H     -3.797668    -0.678318    -0.351237
H     -2.535377    -0.685117    1.074369
O     -0.353722    -0.341487    1.409995
H     0.379914    -0.178593    2.024543
C     0.031624    1.075569    -3.134751
O     0.430111    0.249448    -2.320008
H     -0.651493    1.884577    -2.843668
H     0.363432    1.016025    -4.179045
