27

Mn     -0.099125    -0.093154    -0.018503
N     -0.370499    2.018101    0.242438
H     -1.356654    2.287510    0.226494
H     0.001067    2.424314    1.104825
H     0.058012    2.548152    -0.520394
N     2.005484    0.124548    0.358511
H     2.268858    1.088936    0.574975
H     2.408919    -0.436656    1.112788
H     2.547222    -0.109573    -0.476762
N     0.224624    -2.193352    -0.305506
H     1.078899    -2.562881    0.118561
H     -0.519843    -2.814961    0.021027
H     0.314094    -2.380916    -1.306272
N     -2.184866    -0.293156    -0.468368
H     -2.445605    -1.254407    -0.700332
H     -2.856284    -0.005544    0.248052
H     -2.419173    0.246386    -1.304616
N     -0.436373    -0.339970    2.070184
H     -1.221166    0.196249    2.449099
H     -0.635862    -1.310713    2.323909
H     0.364931    -0.080092    2.650257
C     0.390966    0.348542    -3.155469
N     0.203976    0.174515    -2.021463
C     0.624208    0.564054    -4.578344
H     1.697021    0.517945    -4.794197
H     0.242920    1.546321    -4.877499
H     0.111185    -0.207953    -5.162102
