29

Mn     -0.012519    -0.170910    0.023108
N     0.268158    2.106067    -0.315744
H     -0.193373    2.682668    0.390658
H     -0.085420    2.429532    -1.218767
H     1.249671    2.390138    -0.291668
N     2.262457    -0.479295    -0.313947
H     2.838869    -0.156122    0.466054
H     2.625701    -0.010967    -1.146718
H     2.503252    -1.464770    -0.438189
N     -0.273758    -2.430137    0.458053
H     0.402793    -2.806474    1.125542
H     -0.194178    -3.006461    -0.382550
H     -1.189435    -2.656554    0.851649
N     -2.278629    0.194616    0.295985
H     -2.518524    0.362690    1.275049
H     -2.868208    -0.583605    -0.005442
H     -2.627422    1.006392    -0.217696
N     0.323578    0.190112    2.267531
C     0.496951    0.371892    3.400414
C     0.716581    0.602635    4.822104
H     1.532434    1.319546    4.962157
H     -0.193039    1.004496    5.280686
H     0.979695    -0.338030    5.317096
N     -0.358804    -0.527089    -2.215117
C     -0.525655    -0.717028    -3.347601
C     -0.743420    -0.957350    -4.767809
H     -0.047667    -1.721848    -5.129490
H     -1.770064    -1.301644    -4.931965
H     -0.582427    -0.034130    -5.334450
