48

Mn     0.002539    0.001924    0.274229
C     -0.756852    5.078256    -0.179155
C     -0.553553    4.249377    -1.282870
C     -0.354702    2.886949    -1.069594
N     -0.350630    2.343662    0.159923
C     -0.543501    3.142165    1.220596
C     -0.751318    4.514967    1.096899
H     -0.915868    6.145376    -0.311009
H     -0.549222    4.647437    -2.293129
H     -0.190873    2.172150    -1.870913
H     -0.525105    2.645961    2.187951
H     -0.904184    5.122811    1.983413
C     5.079912    0.754883    -0.178440
C     4.516556    0.747617    1.097590
C     3.143457    0.541801    1.221072
N     2.344455    0.352400    0.160086
C     2.887739    0.357938    -1.069397
C     4.250499    0.555065    -1.282356
H     6.147288    0.912420    -0.310033
H     5.124697    0.897516    1.984407
H     2.647457    0.521855    2.188475
H     2.172793    0.196525    -1.871076
H     4.648386    0.552040    -2.292684
C     0.750321    -5.078607    -0.193902
C     0.743349    -4.519942    1.084187
C     0.539890    -3.146891    1.212612
N     0.352453    -2.343565    0.154594
C     0.357583    -2.882481    -1.076785
C     0.552499    -4.244791    -1.294836
H     0.906064    -6.145765    -0.329385
H     0.891734    -5.131625    1.968829
H     0.520609    -2.654790    2.182040
H     0.197320    -2.164585    -1.876037
H     0.549261    -4.638837    -2.306677
C     -5.075975    -0.754108    -0.192778
C     -4.243628    -0.548927    -1.293478
C     -2.881752    -0.351046    -1.075553
N     -2.342050    -0.349485    0.155548
C     -3.143971    -0.544226    1.213320
C     -4.516473    -0.751305    1.084957
H     -6.142752    -0.912471    -0.328195
H     -4.638415    -0.542516    -2.305017
H     -2.164673    -0.186321    -1.874637
H     -2.651094    -0.527877    2.182406
H     -5.127066    -0.905726    1.969318
N     -0.004223    -0.011238    3.652684
C     -0.001618    -0.006331    2.480282
F     0.002632    0.002357    -1.724155
