13

Mn     0.000001    0.000009    0.000009
N     0.000009    2.331389    0.000005
N     0.000045    3.435897    0.000000
N     2.331374    -0.000003    0.000001
N     3.435881    -0.000015    -0.000006
N     0.000004    -2.331362    0.000003
N     0.000029    -3.435869    -0.000007
N     -2.331374    0.000011    0.000005
N     -3.435882    0.000005    0.000002
N     -0.000003    -0.000012    2.331382
N     -0.000021    -0.000059    3.435889
N     -0.000005    0.000006    -2.331368
N     -0.000023    -0.000027    -3.435875
