23

Mn     -0.037437    -0.021003    -0.080043
P     0.335592    2.761441    -0.527120
H     -0.470604    3.558570    0.315703
H     0.299805    3.601549    -1.666470
H     1.586468    3.186592    -0.026942
P     2.773504    -0.466201    -0.392137
H     3.334512    -1.379153    0.529768
H     3.565544    0.646308    -0.025955
H     3.530325    -0.858207    -1.522362
P     -0.407317    -2.807386    0.458023
H     -0.698807    -3.966579    -0.302290
H     -1.384511    -2.998720    1.460040
H     0.688239    -3.334091    1.177469
P     -2.825192    0.416166    0.328252
H     -3.349734    -0.436407    1.325449
H     -3.964817    0.433035    -0.512553
H     -3.073201    1.636854    0.994941
N     0.234605    0.278184    1.810224
C     0.445354    0.469473    2.988010
O     0.650448    0.656947    4.137365
O     -0.182241    -0.349323    -2.275218
H     -0.310465    -1.254093    -2.606310
H     -0.740068    0.226047    -2.824225
