27

Mn     0.010822    -0.096218    0.144960
N     -0.285738    2.199478    0.418712
H     -1.269589    2.461421    0.511579
H     0.178112    2.619264    1.227677
H     0.051325    2.723359    -0.392171
N     2.282222    0.257470    -0.153937
H     2.651974    1.120984    0.249887
H     2.915972    -0.478338    0.165619
H     2.441177    0.338684    -1.160792
N     0.335648    -2.383685    -0.215035
H     1.217861    -2.758517    0.141041
H     -0.384015    -3.014410    0.145461
H     0.361289    -2.552454    -1.223377
N     -2.273396    -0.377842    -0.118475
H     -2.562947    -1.358237    -0.129235
H     -2.892716    0.073446    0.558667
H     -2.546465    -0.011605    -1.033311
N     0.082965    -0.406267    2.435922
H     -0.658199    0.072725    2.953074
H     -0.004414    -1.391434    2.695632
H     0.955917    -0.095238    2.869363
C     -0.067574    0.377970    -3.402817
N     -0.026957    0.219386    -2.252958
C     -0.118986    0.576790    -4.845612
H     0.895885    0.604988    -5.256200
H     -0.622083    1.522233    -5.074518
H     -0.670583    -0.243861    -5.316411
