33

Mn     0.009717    0.067324    -0.012538
N     0.904241    1.839610    0.352887
C     1.365231    2.882633    0.546367
C     1.942811    4.197806    0.787399
H     1.855735    4.812682    -0.114519
H     1.412442    4.691540    1.608236
H     3.000581    4.102586    1.053090
N     1.819203    -0.803444    0.152961
C     2.877026    -1.265800    0.246589
C     4.211540    -1.838349    0.365228
H     4.595197    -2.099208    -0.626716
H     4.888595    -1.113366    0.828888
H     4.179660    -2.742533    0.981848
N     -0.910969    -1.688053    -0.387262
C     -1.471492    -2.678205    -0.605368
C     -2.184301    -3.918832    -0.881353
H     -2.987885    -3.734334    -1.602004
H     -1.497655    -4.665442    -1.293462
H     -2.622358    -4.310960    0.042574
N     -1.787221    0.971256    -0.174960
C     -2.785170    1.552891    -0.236096
C     -4.039761    2.289114    -0.310290
H     -4.439155    2.443315    0.697591
H     -3.872468    3.263803    -0.780256
H     -4.770619    1.728803    -0.902163
C     -0.267674    -1.016202    2.784179
O     -0.326453    -0.117611    1.954853
H     0.056983    -2.031469    2.515989
H     -0.542619    -0.811013    3.826289
C     0.634119    -0.191224    -2.941702
O     0.295172    0.457638    -1.960200
H     0.870464    -1.263268    -2.878526
H     0.709302    0.304124    -3.917685
