19

Mn     -0.221352    -0.016741    -0.227537
S     -0.639021    2.366577    0.318215
H     -0.031671    3.158009    -0.594292
H     0.242996    2.634047    1.302479
S     2.247046    0.476331    -0.602265
H     2.597214    0.630032    0.691567
H     2.883642    -0.707512    -0.727258
S     0.011078    -2.467894    -0.552480
H     0.803423    -2.800129    0.487495
H     0.935966    -2.747197    -1.496933
S     -2.706582    -0.328188    0.189012
H     -2.911283    -1.655405    0.045811
H     -2.684881    -0.381403    1.537027
N     0.381877    -0.416075    2.807044
C     0.129886    -0.257938    1.675520
C     -0.246984    0.637069    -3.262816
O     -0.679839    0.227091    -2.191498
H     -0.887882    0.619360    -4.153489
H     0.776367    1.029963    -3.361485
