25

Mn     -0.071718    -0.007588    0.094555
S     0.410369    2.585598    -0.500001
H     0.718148    3.306211    0.599873
P     2.257315    2.925335    -1.643990
H     1.697601    2.323244    -2.799776
P     3.696244    1.236156    -1.192325
H     4.045509    1.722774    0.092653
S     2.552631    -0.438851    -0.345215
H     2.639711    -1.279405    -1.398144
S     -0.380573    -2.668819    0.505471
H     -1.641270    -2.758604    0.026919
P     -0.959288    -2.726210    2.646767
H     -0.438285    -4.024156    2.910939
P     0.944460    -1.718420    3.383569
H     0.440394    -1.629177    4.712018
S     0.317333    0.318682    2.757783
H     1.565296    0.834764    2.715710
S     -2.704241    0.411124    0.437394
H     -2.934277    1.426525    1.298074
P     -3.568107    1.317586    -1.380453
H     -2.493367    2.211429    -1.659735
P     -2.919063    -0.383851    -2.717663
H     -3.034951    0.418378    -3.884723
S     -0.701484    -0.217581    -2.558462
H     -0.411207    -1.513459    -2.810851
