19

Mn     0.007575    -0.001673    -0.024590
P     -0.422107    2.315194    -0.258534
H     -1.352151    2.941673    0.605077
H     0.631976    3.240455    -0.060850
H     -0.905896    2.825611    -1.485542
P     2.334816    0.278633    -0.354866
H     2.923031    1.546014    -0.122439
H     3.239320    -0.472953    0.431601
H     2.905974    0.028765    -1.624716
P     0.409461    -2.313388    0.312014
H     1.720873    -2.851979    0.329072
H     -0.028226    -2.900749    1.522238
H     -0.157143    -3.242723    -0.590218
P     -2.325590    -0.281786    0.285326
H     -2.919360    -1.540961    0.024973
H     -2.905260    -0.053475    1.555747
H     -3.224603    0.485260    -0.492670
Cl     0.398264    0.390139    2.264129
Cl     -0.371464    -0.376371    -2.311308
