29

Mn     -0.036070    -0.132564    0.036447
N     0.176356    1.938774    -0.371384
H     -0.086007    2.534057    0.417508
H     -0.361043    2.263393    -1.178028
H     1.147231    2.184247    -0.574794
N     2.059824    -0.375902    -0.211552
H     2.608158    0.072813    0.525096
H     2.417750    -0.023197    -1.102045
H     2.333131    -1.360713    -0.191163
N     -0.247056    -2.205723    0.437589
H     0.326338    -2.544034    1.213097
H     -0.027175    -2.790101    -0.372289
H     -1.208587    -2.448927    0.684303
N     -2.131251    0.112230    0.275599
H     -2.465418    -0.112186    1.215505
H     -2.683010    -0.448513    -0.377053
H     -2.425979    1.077417    0.113009
N     0.282831    0.167489    2.010139
C     0.446789    0.347113    3.145929
C     0.654932    0.570228    4.571723
H     1.538915    0.019451    4.910378
H     0.805421    1.637252    4.767915
H     -0.216244    0.225076    5.138746
N     -0.356844    -0.434207    -1.933938
C     -0.529363    -0.618403    -3.067604
C     -0.747253    -0.848110    -4.490652
H     0.199661    -1.102376    -4.978721
H     -1.453620    -1.672587    -4.635056
H     -1.155642    0.054616    -4.957348
