20

Mn     0.042262    -0.005441    0.027627
S     0.402249    2.475966    -0.236630
H     1.722594    2.741232    -0.120991
H     0.361927    2.752429    -1.558459
S     2.527518    -0.378677    0.435611
H     2.825624    -1.693523    0.344981
H     2.760616    -0.302245    1.763746
S     -0.339865    -2.493529    0.282769
H     -0.030075    -2.837322    1.551403
H     -1.661641    -2.734206    0.427283
S     -2.453214    0.352766    -0.327879
H     -2.804848    0.231441    -1.626945
H     -2.740936    1.670774    -0.257868
S     -0.283624    0.396447    2.482427
H     -0.750251    1.653571    2.653765
H     -1.459147    -0.190870    2.796451
N     0.411416    -0.351266    -2.006830
H     -0.303280    0.024861    -2.635224
H     1.293084    0.066872    -2.319870
H     0.483841    -1.345763    -2.240195
