21

Mn     0.000122    0.000213    0.000029
N     -0.259707    2.249705    0.397422
H     -1.232863    2.501968    0.590507
H     0.266511    2.609308    1.199324
H     0.009530    2.850435    -0.387242
N     2.258790    0.306889    -0.312562
H     2.514342    1.297708    -0.340792
H     2.850820    -0.093724    0.421018
H     2.624867    -0.077933    -1.188283
N     0.261549    -2.250559    -0.390547
H     1.237325    -2.505022    -0.566657
H     -0.023018    -2.850690    0.389142
H     -0.251323    -2.608979    -1.201597
N     -2.259564    -0.306367    0.305293
H     -2.519895    -1.296367    0.306234
H     -2.621208    0.054977    1.192779
H     -2.851842    0.117792    -0.414732
C     0.385498    -0.404985    2.525693
O     0.553300    -0.589981    3.625414
C     -0.387364    0.405692    -2.525324
O     -0.555876    0.589914    -3.625065
