37

Mn     -0.103342    -0.025107    -0.167372
S     -0.448557    2.414677    -0.647222
H     0.238397    2.621146    -1.790028
C     0.460318    3.587902    0.440653
H     -0.027351    3.552802    1.416573
H     1.514575    3.323825    0.526295
H     0.343511    4.589815    0.023433
S     2.298974    0.419287    0.245416
H     2.730468    -0.548460    1.081744
C     3.483150    0.086098    -1.127711
H     3.248674    0.781098    -1.936004
H     4.488441    0.297750    -0.759147
H     3.417052    -0.947653    -1.470856
S     0.315805    -2.449994    0.163323
H     0.747081    -2.589744    1.434688
C     -1.093131    -3.636125    0.244637
H     -1.600017    -3.606884    -0.721424
H     -0.682815    -4.634965    0.402673
H     -1.788549    -3.381436    1.045621
S     -2.522931    -0.421477    -0.546893
H     -2.910930    -1.178282    0.501145
C     -3.614955    1.028434    -0.214696
H     -3.481484    1.723410    -1.043930
H     -4.645264    0.668928    -0.203401
H     -3.356262    1.510556    0.728249
S     -0.561874    0.468999    2.213421
H     -1.202751    -0.625500    2.673167
C     0.817730    0.492449    3.434770
H     1.463039    1.332938    3.174694
H     0.387664    0.663392    4.423186
H     1.383651    -0.440218    3.424398
S     0.218644    -0.299168    -2.613084
H     1.374028    -0.991668    -2.667150
C     -0.845663    -1.537608    -3.464938
H     -1.863507    -1.147453    -3.463499
H     -0.491521    -1.626462    -4.493427
H     -0.808631    -2.504608    -2.962154
