31

Mn     0.012625    -0.104988    0.154645
N     -0.375876    1.926595    -0.308356
H     -1.376772    2.126609    -0.216761
H     -0.115782    2.044931    -1.293820
O     0.350345    2.896732    0.451026
H     0.097904    3.791332    0.148292
N     2.047574    0.235002    -0.126227
H     2.313937    0.940730    0.571428
H     2.278859    0.546250    -1.074028
O     2.795404    -0.953646    0.149640
H     3.746722    -0.740302    0.080632
N     0.353644    -2.149878    0.437946
H     0.293099    -2.518274    1.391670
H     1.314851    -2.312849    0.110453
O     -0.569651    -2.890891    -0.371014
H     -0.347723    -3.841545    -0.299320
N     -2.051335    -0.474922    0.408247
H     -2.461929    -0.283739    1.326886
H     -2.192269    -1.470416    0.199190
O     -2.781191    0.297859    -0.556427
H     -3.728486    0.059748    -0.490757
N     0.455232    0.339554    2.186470
H     0.908085    -0.447009    2.658021
H     -0.322582    0.588047    2.808510
O     1.446273    1.372619    2.384940
H     1.056928    2.163602    1.946772
N     -0.331331    -0.428419    -1.869971
H     -1.329535    -0.271711    -2.048311
H     -0.097614    -1.383195    -2.158751
O     0.423826    0.504742    -2.649061
H     0.218628    0.354182    -3.593751
