25

Mn     -0.262954    -0.190626    -0.022249
C     0.723112    2.885260    -0.163372
O     -0.148531    2.023828    -0.095664
H     1.787253    2.615418    -0.227710
H     0.450816    3.949698    -0.160663
C     2.804378    -1.193286    -0.133956
O     1.951238    -0.311268    -0.101253
H     2.524502    -2.256814    -0.143971
H     3.871080    -0.931022    -0.153127
C     -1.256382    -3.260672    0.134702
O     -0.381288    -2.404299    0.049703
H     -2.315339    -2.984787    0.243847
H     -0.991918    -4.326589    0.103195
C     -3.331402    0.803024    0.095217
O     -2.472361    -0.073122    0.068078
H     -3.059178    1.868389    0.094527
H     -4.396165    0.533387    0.119543
P     -0.002631    0.007310    2.762716
H     1.042986    0.817513    3.254855
H     0.256136    -1.155053    3.519859
H     -1.061165    0.534909    3.532094
P     -0.468752    -0.414058    -2.807297
H     -0.148466    0.682193    -3.635662
H     -1.733651    -0.730023    -3.347751
H     0.294089    -1.406125    -3.459291
