24

Mn     -0.080375    -0.010597    -0.106276
C     0.589153    3.271055    -0.416362
O     -0.008476    2.223341    -0.209717
H     0.075620    4.237483    -0.310562
H     1.650106    3.281567    -0.711283
C     3.231310    -0.394850    -0.710689
O     2.197906    -0.132011    -0.107791
H     4.206443    -0.323893    -0.207401
H     3.219950    -0.706518    -1.766346
C     -0.264726    -3.099614    0.866318
O     -0.215810    -2.225018    0.008913
H     -0.232071    -2.851958    1.937840
H     -0.341077    -4.156730    0.576325
C     -3.398984    0.353539    0.497725
O     -2.324345    0.113384    -0.036769
H     -3.465782    0.657951    1.553526
H     -4.336279    0.269090    -0.070751
O     0.307218    0.099295    2.054464
H     -0.177952    0.600819    2.731620
H     1.251324    0.165630    2.283391
N     -0.393293    -0.283755    -2.295015
H     -1.378637    -0.091784    -2.492887
H     -0.253326    -1.265013    -2.549486
H     0.142137    0.268564    -2.967661
