23

Mn     -0.033692    -0.030394    -0.045880
N     -0.027026    2.073781    -0.352059
H     -0.044415    2.428931    0.605732
H     -0.840743    2.460886    -0.832616
H     0.787357    2.501244    -0.795954
N     2.089051    -0.023689    -0.336119
H     2.366195    0.028370    0.647347
H     2.526747    0.776793    -0.795490
H     2.545246    -0.852183    -0.722292
N     -0.045117    -2.140554    0.343585
H     -0.889618    -2.690947    0.177935
H     0.066331    -2.079084    1.359144
H     0.731248    -2.708513    0.000908
N     -2.131938    -0.027190    0.331323
H     -2.143238    0.125410    1.341870
H     -2.672872    -0.876445    0.160063
H     -2.668733    0.731187    -0.091764
N     0.271097    0.230762    1.875553
C     0.486058    0.579330    3.010232
O     0.691302    0.904728    4.136754
O     -0.471380    -0.250884    -2.114853
H     0.241683    -0.054327    -2.744373
H     -0.833549    -1.107216    -2.395483
