25

Mn     0.115371    -0.025586    -0.028691
S     -0.336971    2.398415    0.328179
H     -0.206379    2.612256    1.659171
P     1.439930    3.415121    -0.504641
H     1.445066    4.519972    0.385469
P     3.158430    2.321578    0.470027
H     2.552010    2.101856    1.741623
S     2.510580    0.408061    -0.450236
H     3.280589    -0.405740    0.306461
S     0.442686    -2.443212    -0.505179
H     1.774786    -2.686003    -0.534411
P     -0.225370    -3.456594    1.325370
H     0.559819    -4.632296    1.194615
P     0.960509    -2.470699    2.983036
H     2.243656    -2.436814    2.368480
S     0.539826    -0.392512    2.380731
H     -0.598453    -0.225731    3.090202
S     -2.319865    -0.345466    0.286375
H     -2.432787    -1.626105    0.709796
P     -3.249149    -0.672718    -1.730407
H     -4.407530    0.107576    -1.463906
P     -2.279430    1.001770    -2.889852
H     -2.315971    1.998757    -1.872682
S     -0.235094    0.269245    -2.474651
H     0.450714    1.336985    -2.940980
