65

Mn     -0.001530    0.000927    0.194406
O     -0.008114    0.069248    -2.509969
C     0.748222    -0.739565    -3.349612
C     0.445921    -0.492060    -4.651854
C     -0.555063    0.530002    -4.656575
C     -0.804431    0.842946    -3.357710
H     1.421549    -1.426232    -2.865951
H     0.883952    -0.980135    -5.511845
H     -1.473249    1.536224    -2.874300
H     -1.029786    0.972672    -5.522060
C     -0.099546    4.972045    0.087590
C     -0.492697    4.266324    1.225275
C     -0.448837    2.877424    1.210856
N     -0.033820    2.167883    0.134611
C     0.334218    2.859461    -0.968076
C     0.315967    4.247899    -1.029999
H     -0.118289    6.057642    0.071480
H     -0.832079    4.778071    2.119823
H     -0.739581    2.313205    2.084755
H     0.644318    2.290206    -1.832678
H     0.626515    4.743185    -1.944237
C     4.940843    -0.015433    0.086208
C     4.228944    -0.614469    1.127386
C     2.840577    -0.581164    1.108193
N     2.139388    0.018002    0.111459
C     2.835830    0.582488    -0.903396
C     4.224880    0.585616    -0.950108
H     6.026742    -0.022220    0.079285
H     4.737385    -1.109576    1.947946
H     2.265404    -1.049139    1.895553
H     2.270320    1.034980    -1.705894
H     4.728692    1.056339    -1.787765
C     -0.011193    -4.951269    -0.216478
C     -1.142989    -4.261165    0.219646
C     -1.111186    -2.873644    0.274542
N     -0.017635    -2.144702    -0.066780
C     1.076164    -2.826870    -0.491214
C     1.113808    -4.212220    -0.584665
H     -0.005678    -6.035790    -0.268267
H     -2.045873    -4.785643    0.515134
H     -1.982827    -2.321313    0.595518
H     1.942793    -2.238228    -0.754339
H     2.018782    -4.697156    -0.935538
C     -4.925876    0.187756    -0.115256
C     -4.269792    0.626970    1.036509
C     -2.883023    0.555847    1.094150
N     -2.135989    0.067491    0.074724
C     -2.778437    -0.367814    -1.037509
C     -4.161079    -0.318512    -1.168095
H     -6.008623    0.231399    -0.187153
H     -4.819417    1.022252    1.884571
H     -2.349306    0.877157    1.978074
H     -2.167839    -0.784517    -1.827807
H     -4.623436    -0.681933    -2.080339
C     0.149238    -0.209595    5.334714
C     0.940089    0.700231    4.628738
C     0.864092    0.722325    3.241831
N     0.052597    -0.097840    2.527438
C     -0.694035    -0.985524    3.224678
C     -0.679231    -1.070411    4.613151
H     0.181613    -0.248258    6.419600
H     1.606847    1.384491    5.142704
H     1.471375    1.416632    2.670557
H     -1.322649    -1.652346    2.646282
H     -1.306161    -1.799294    5.115464
