29

Mn     0.000119    0.004680    -0.007180
C     0.002849    2.231644    -0.008892
N     0.007287    3.392547    -0.004808
C     0.015139    4.818870    0.004605
H     0.848574    5.175615    -0.605378
H     0.128731    5.169207    1.033324
H     -0.926931    5.184389    -0.411166
C     2.227206    0.001685    -0.015643
N     3.388109    -0.003014    -0.013399
C     4.814441    -0.011098    -0.005124
H     5.170581    -0.846266    -0.613081
H     5.165545    -0.121897    1.023639
H     5.179810    0.929764    -0.423746
C     -0.002552    -2.222635    -0.010243
N     -0.007076    -3.383545    -0.006208
C     -0.015031    -4.809876    0.003577
H     -0.852824    -5.166664    -0.600379
H     -0.121296    -5.159952    1.033166
H     0.924031    -5.175603    -0.418767
C     -2.226938    0.004133    -0.006360
N     -3.387840    -0.000136    -0.008088
C     -4.814116    -0.008866    -0.013687
H     -5.178675    0.979118    0.277726
H     -5.169868    -0.756810    0.699034
H     -5.166761    -0.252693    -1.018747
C     0.008973    0.003417    1.972611
N     0.016170    0.002120    3.141241
C     -0.008629    0.004678    -1.986996
N     -0.015777    0.004173    -3.155601
