37

Mn     0.000667    -0.000597    -0.000317
C     0.296402    2.025964    0.338223
N     0.460672    3.155447    0.523669
C     0.664746    4.558182    0.753549
H     1.586968    4.863202    0.251450
H     0.743298    4.727500    1.830901
H     -0.188464    5.105918    0.343984
C     2.027950    -0.339056    0.295043
N     3.156500    -0.526978    0.463056
C     4.557564    -0.761226    0.673739
H     4.899409    -1.505449    -0.050754
H     4.699609    -1.129266    1.693520
H     5.093755    0.181066    0.531567
C     -0.294383    -2.026704    -0.340693
N     -0.458923    -3.155526    -0.529855
C     -0.663939    -4.557358    -0.764278
H     -1.427802    -4.673071    -1.538060
H     -0.993427    -5.022413    0.168834
H     0.280788    -4.997065    -1.095701
C     -2.027167    0.335946    -0.294824
N     -3.156781    0.521065    -0.458730
C     -4.559774    0.748877    -0.663150
H     -4.806496    1.751687    -0.303633
H     -5.120387    -0.003519    -0.101655
H     -4.774651    0.665105    -1.731986
C     -0.376399    -0.334509    2.282822
N     -0.564096    -0.496953    3.416837
C     -0.795713    -0.696727    4.819214
H     -0.323649    -1.633675    5.125645
H     -1.873238    -0.744043    4.996342
H     -0.361503    0.140460    5.371668
C     0.377769    0.335976    -2.283514
N     0.565239    0.500981    -3.417186
C     0.796225    0.704985    -4.818972
H     0.140504    0.039006    -5.385655
H     1.842381    0.479848    -5.041636
H     0.576603    1.746919    -5.065643
