31

Mn     0.007713    -0.018700    0.004713
N     -0.313371    1.976711    0.324275
H     -0.547157    2.480811    -0.536724
C     -0.220910    2.759473    1.339779
H     0.020536    2.363161    2.324385
H     -0.389370    3.834845    1.249411
N     2.022330    0.225474    0.314155
H     2.251531    1.181938    0.603230
C     3.064177    -0.519665    0.223180
H     2.972923    -1.562440    -0.074937
H     4.062953    -0.137109    0.443912
N     0.327995    -2.014748    -0.314842
H     0.545247    -2.518590    0.550603
C     0.250239    -2.798435    -1.330761
H     0.026707    -2.402819    -2.319864
H     0.413643    -3.874215    -1.236169
N     -2.004498    -0.266275    -0.307023
H     -2.229921    -1.207729    -0.644156
C     -3.050210    0.466769    -0.171139
H     -2.962759    1.492985    0.180855
H     -4.048087    0.090262    -0.405976
N     -0.059068    -0.358932    2.014092
H     0.844214    -0.466970    2.485979
C     -1.051707    -0.549219    2.808833
H     -2.074270    -0.482009    2.444553
H     -0.900898    -0.785752    3.864438
N     0.074585    0.323967    -2.002806
H     -0.826247    0.466273    -2.470531
C     1.070387    0.483605    -2.800502
H     2.091016    0.376911    -2.440159
H     0.924248    0.731234    -3.854232
