15

Mn     0.000225    -0.000120    -0.006480
O     0.341979    1.957406    0.326669
H     0.394937    2.450816    -0.514698
H     -0.372188    2.360445    0.855801
O     1.941073    -0.510463    0.254596
H     2.586530    0.077279    -0.178625
H     2.170419    -0.558234    1.202801
O     -0.341344    -1.957573    -0.340175
H     0.373198    -2.360186    -0.869164
H     -0.394785    -2.451711    0.500734
O     -1.940943    0.510968    -0.267239
H     -2.586000    -0.072301    0.172519
H     -2.173549    0.553235    -1.214850
Cl     -0.384174    -0.342477    2.158490
Cl     0.383678    0.341824    -2.171429
