31

Mn     -0.023314    -0.073330    0.127033
N     -0.352029    1.922392    -0.276815
H     -1.347418    2.159721    -0.154500
H     -0.111656    2.061082    -1.270938
O     0.453135    2.776299    0.517178
H     0.299502    3.706195    0.236289
N     1.963750    0.313556    -0.125041
H     2.195219    1.116825    0.482444
H     2.200095    0.513902    -1.106928
O     2.683498    -0.822524    0.325968
H     3.646289    -0.627105    0.283269
N     0.285480    -2.127482    0.368940
H     0.173889    -2.524727    1.310460
H     1.264932    -2.298412    0.085791
O     -0.618060    -2.791804    -0.505668
H     -0.450149    -3.760825    -0.466177
N     -2.069984    -0.464260    0.355572
H     -2.483371    -0.303893    1.284071
H     -2.222903    -1.454734    0.108877
O     -2.745361    0.362828    -0.587265
H     -3.711277    0.178858    -0.543311
N     0.539094    0.144650    2.147575
H     1.090022    -0.671929    2.433306
H     -0.220808    0.212225    2.842364
O     1.466730    1.183753    2.443321
H     0.982283    2.030989    2.332514
N     -0.333930    -0.361673    -1.883998
H     -1.337646    -0.184694    -2.052188
H     -0.125622    -1.327880    -2.173999
O     0.446022    0.570649    -2.612468
H     0.285876    0.443010    -3.574895
