24

Mn     -0.000860    -0.019875    -0.054521
C     0.122306    2.955810    0.441346
O     -0.451943    1.882771    0.215450
H     -0.484001    3.862672    0.567553
H     1.215876    3.023781    0.522034
C     3.033156    -0.081240    0.215796
O     1.851639    0.287217    0.233390
H     3.775043    0.461738    0.817231
H     3.343301    -0.936341    -0.401458
C     -0.163400    -2.986728    -0.522942
O     0.426949    -1.922752    -0.293955
H     -1.253789    -3.029483    -0.649717
H     0.426130    -3.909563    -0.604580
C     -3.014318    -0.038830    -0.110995
O     -1.845244    -0.353536    -0.366712
H     -3.236086    0.754602    0.615428
H     -3.833653    -0.562286    -0.621456
O     -0.301281    -0.423582    1.905183
H     -0.464993    0.265665    2.578244
H     0.009057    -1.219513    2.380993
N     0.186074    0.434525    -2.035363
H     -0.448605    1.182968    -2.335755
H     -0.019815    -0.368014    -2.642231
H     1.128387    0.739965    -2.301890
