23

Mn     0.028031    0.116639    -0.231516
C     0.333369    3.188279    -0.084318
O     0.385346    2.167097    -0.765267
H     0.517131    4.163954    -0.552968
H     0.107224    3.144463    0.990314
C     2.774322    -0.107727    0.965825
O     2.080195    -0.274843    -0.038068
H     3.847754    -0.331906    0.919399
H     2.331174    0.260466    1.901693
C     -0.130221    -3.025488    0.420262
O     -0.555775    -2.000575    -0.104772
H     0.821341    -3.040459    0.970231
H     -0.703220    -3.959987    0.347119
C     -3.056514    -0.064527    -0.670344
O     -2.004890    0.559416    -0.539838
H     -3.992071    0.485444    -0.836945
H     -3.085945    -1.161976    -0.620769
O     -0.091807    0.428405    1.498862
H     -0.971545    0.499450    1.914095
N     0.288820    -0.226040    -2.290216
H     0.029630    0.601251    -2.835945
H     -0.231287    -1.021173    -2.670309
H     1.278939    -0.400158    -2.489014
