65

Mn     0.014567    -0.023045    0.227748
O     -0.014458    0.030908    -2.157143
C     0.665995    -0.796507    -3.061798
C     0.308781    -0.499775    -4.330669
C     -0.652481    0.566820    -4.259756
C     -0.825511    0.861073    -2.952054
H     1.346398    -1.510202    -2.635597
H     0.681808    -0.982512    -5.224559
H     -1.437222    1.571427    -2.422053
H     -1.150007    1.047002    -5.092011
C     -0.128389    4.927897    0.099109
C     -0.646183    4.235711    1.196705
C     -0.587205    2.849953    1.214661
N     -0.041048    2.108079    0.215419
C     0.454030    2.798606    -0.842874
C     0.430704    4.183872    -0.938900
H     -0.162363    6.012268    0.055545
H     -1.088844    4.761672    2.036102
H     -0.971165    2.315387    2.069260
H     0.858389    2.220139    -1.656196
H     0.841819    4.661801    -1.821845
C     4.948715    -0.026004    0.062266
C     4.246617    -0.575009    1.136486
C     2.859130    -0.530852    1.136017
N     2.130158    0.036222    0.134678
C     2.826438    0.538297    -0.914950
C     4.214806    0.531164    -0.984740
H     6.034107    -0.045174    0.036357
H     4.763119    -1.040404    1.969524
H     2.307359    -0.987769    1.945811
H     2.257369    0.946276    -1.734998
H     4.705132    0.956966    -1.853814
C     -0.013014    -4.911164    -0.301444
C     -1.168875    -4.243883    0.112496
C     -1.147498    -2.862630    0.237876
N     -0.049679    -2.102748    -0.022361
C     1.065698    -2.769068    -0.427370
C     1.122425    -4.149191    -0.573823
H     0.000823    -5.991615    -0.408543
H     -2.083333    -4.784984    0.332009
H     -2.038886    -2.338051    0.549074
H     1.940461    -2.169267    -0.622919
H     2.050178    -4.611021    -0.895983
C     -4.854389    0.258618    -0.198420
C     -4.232219    0.722086    0.965239
C     -2.858433    0.585100    1.098418
N     -2.071068    0.019670    0.148139
C     -2.695076    -0.459692    -0.964561
C     -4.064452    -0.353529    -1.171435
H     -5.927115    0.358246    -0.334156
H     -4.803876    1.182099    1.764352
H     -2.366351    0.916915    1.999798
H     -2.075823    -0.966869    -1.689353
H     -4.496266    -0.755352    -2.082470
C     0.217692    -0.213706    5.044346
C     0.958818    0.728201    4.324752
C     0.845991    0.768757    2.942941
N     0.031331    -0.072119    2.245384
C     -0.679282    -0.987187    2.953856
C     -0.613998    -1.085204    4.336996
H     0.289465    -0.268744    6.126967
H     1.622662    1.425583    4.824944
H     1.413886    1.485375    2.365361
H     -1.308195    -1.658145    2.389331
H     -1.204397    -1.839466    4.846209
