48

Mn     -0.000057    0.000380    0.171064
C     -0.778905    4.954879    -0.133111
C     -0.463853    4.176331    -1.246769
C     -0.260435    2.811550    -1.075930
N     -0.352194    2.209714    0.127030
C     -0.655819    2.964787    1.201648
C     -0.876597    4.335152    1.112410
H     -0.944712    6.023333    -0.233771
H     -0.377291    4.613614    -2.235974
H     -0.021172    2.154576    -1.903163
H     -0.715462    2.442788    2.149501
H     -1.119220    4.898357    2.007344
C     4.955374    0.778732    -0.133784
C     4.335545    0.877169    1.111630
C     2.965164    0.656524    1.201145
N     2.210044    0.352327    0.126754
C     2.811808    0.259857    -1.076173
C     4.176613    0.463074    -1.247132
H     6.023840    0.944405    -0.234590
H     4.898797    1.120280    2.006402
H     2.443233    0.716573    2.149030
H     2.154733    0.020359    -1.903269
H     4.613837    0.375898    -2.236309
C     0.780088    -4.954176    -0.136891
C     0.877127    -4.335584    1.109233
C     0.655749    -2.965384    1.199668
N     0.352189    -2.209482    0.125630
C     0.260958    -2.810289    -1.077914
C     0.464990    -4.174819    -1.249972
H     0.946406    -6.022460    -0.238488
H     1.119684    -4.899514    2.003727
H     0.714778    -2.444246    2.148035
H     0.021563    -2.152767    -1.904657
H     0.378837    -4.611253    -2.239590
C     -4.955589    -0.779227    -0.137481
C     -4.176194    -0.462582    -1.250101
C     -2.811574    -0.259095    -1.077996
N     -2.210586    -0.352206    0.125283
C     -2.966444    -0.657343    1.198882
C     -4.336705    -0.878345    1.108339
H     -6.023927    -0.945159    -0.239185
H     -4.612740    -0.374876    -2.239533
H     -2.154098    -0.018853    -1.904546
H     -2.445156    -0.717943    2.147083
H     -4.900519    -1.122227    2.002547
N     -0.001129    -0.002352    3.324519
C     -0.000938    -0.001174    2.156082
F     -0.000043    0.000693    -1.623323
