67

Mn     -0.009090    0.005698    -0.010795
C     -0.069465    4.961657    0.125971
C     1.128370    4.256868    -0.000900
C     1.098839    2.869227    -0.054826
N     -0.050076    2.144674    0.011616
C     -1.208719    2.844464    0.142353
C     -1.256552    4.231204    0.200883
H     -0.078352    6.046688    0.165238
H     2.082475    4.769980    -0.058191
H     2.013457    2.305382    -0.141197
H     -2.117823    2.268678    0.194266
H     -2.217566    4.724329    0.302980
C     4.936744    -0.095979    0.009954
C     4.200945    -0.398376    1.156487
C     2.813334    -0.357865    1.105232
N     2.118421    -0.033104    -0.017684
C     2.849059    0.263702    -1.126606
C     4.237037    0.243142    -1.150517
H     6.022359    -0.124454    0.019446
H     4.689484    -0.664683    2.087984
H     2.229403    -0.597967    1.979319
H     2.292341    0.530840    -2.011346
H     4.755583    0.487520    -2.071644
C     -0.082371    -4.952365    -0.089090
C     -1.255366    -4.210478    0.053268
C     -1.184071    -2.823180    0.077748
N     -0.016403    -2.134128    -0.031888
C     1.116400    -2.871074    -0.184874
C     1.123776    -4.259217    -0.212204
H     -0.106829    -6.037636    -0.107135
H     -2.223082    -4.693213    0.144006
H     -2.080009    -2.234837    0.191551
H     2.035277    -2.318203    -0.298549
H     2.066749    -4.782971    -0.329981
C     -4.952186    0.018379    -0.004481
C     -4.228224    0.014537    -1.197560
C     -2.839538    0.021293    -1.151033
N     -2.135886    0.030428    0.011706
C     -2.852820    0.032329    1.167866
C     -4.241153    0.028798    1.198094
H     -6.038226    0.012343    -0.010619
H     -4.726341    0.004045    -2.161599
H     -2.261385    0.008780    -2.060694
H     -2.283645    0.048225    2.083312
H     -4.750797    0.037944    2.156228
C     0.139677    -0.068616    4.946023
C     0.214200    1.129111    4.235159
C     0.135279    1.103391    2.847884
N     -0.009308    -0.042179    2.131864
C     -0.078188    -1.203021    2.837233
C     -0.012682    -1.253963    4.223502
H     0.196889    -0.079245    6.030228
H     0.331808    2.081651    4.741050
H     0.194092    2.017305    2.279365
H     -0.195847    -2.109209    2.264870
H     -0.080289    -2.214460    4.723988
C     0.085766    0.114093    -4.955999
C     0.251117    -1.081992    -4.257243
C     0.221959    -1.067311    -2.868621
N     0.029725    0.063061    -2.139139
C     -0.142669    1.220850    -2.833705
C     -0.117177    1.284006    -4.220542
H     0.109763    0.134001    -6.041144
H     0.399887    -2.024377    -4.773859
H     0.345902    -1.980982    -2.310618
H     -0.306658    2.113567    -2.251445
H     -0.256039    2.241785    -4.711290
