67

Mn     0.003742    -0.001740    -0.000479
C     -0.085104    5.300341    0.068715
C     1.113641    4.605485    0.237680
C     1.097176    3.215330    0.193618
N     -0.026004    2.484915    -0.005652
C     -1.178467    3.177154    -0.173895
C     -1.252649    4.566090    -0.144919
H     -0.108123    6.385269    0.102308
H     2.050069    5.128406    0.402439
H     2.014617    2.654258    0.331701
H     -2.069728    2.585874    -0.349836
H     -2.208892    5.058482    -0.288881
C     4.893845    -0.004132    -0.027256
C     4.186755    -0.668440    0.977149
C     2.797990    -0.651693    0.954148
N     2.095204    -0.017271    -0.018592
C     2.786361    0.618844    -0.998740
C     4.174517    0.648225    -1.030729
H     5.979832    0.006242    -0.026764
H     4.699873    -1.191465    1.777729
H     2.226310    -1.157924    1.720323
H     2.204981    1.118635    -1.761548
H     4.677221    1.174599    -1.835610
C     -0.165602    -5.313819    -0.076095
C     -1.313879    -4.555337    0.155903
C     -1.209425    -3.168184    0.187412
N     -0.046113    -2.498488    0.002831
C     1.058500    -3.252312    -0.215281
C     1.044580    -4.642877    -0.261982
H     -0.211508    -6.398308    -0.108045
H     -2.278847    -5.026974    0.311377
H     -2.085110    -2.559213    0.379341
H     1.987449    -2.712334    -0.364332
H     1.967383    -5.184873    -0.442082
C     -4.892150    0.000316    0.042341
C     -4.188524    -0.499017    -1.056342
C     -2.799911    -0.482677    -1.038423
N     -2.090986    0.008137    0.011129
C     -2.779247    0.494053    1.076333
C     -4.167155    0.502839    1.125449
H     -5.978517    -0.001475    0.054054
H     -4.703427    -0.900849    -1.922707
H     -2.230951    -0.878884    -1.867544
H     -2.195074    0.893633    1.893249
H     -4.664733    0.902381    2.003141
C     0.156070    -0.000200    4.939243
C     0.408633    1.166083    4.215529
C     0.353319    1.131006    2.827394
N     0.055499    0.001956    2.136274
C     -0.197173    -1.128267    2.845059
C     -0.153088    -1.164455    4.233518
H     0.198480    -0.002369    6.024599
H     0.651135    2.099678    4.712613
H     0.545057    2.019822    2.246659
H     -0.431862    -2.013732    2.273784
H     -0.360965    -2.097122    4.747415
C     0.088404    0.030386    -4.938658
C     0.400984    -1.128180    -4.225490
C     0.356590    -1.104931    -2.836587
N     0.019391    0.006943    -2.135832
C     -0.285013    1.130936    -2.833917
C     -0.260781    1.176950    -4.222404
H     0.115832    0.039218    -6.024482
H     0.681541    -2.045880    -4.732345
H     0.589858    -1.988129    -2.261833
H     -0.545900    2.004511    -2.256276
H     -0.514648    2.103448    -4.727245
