37

Mn     -0.013472    -0.007838    -1.586741
P     -0.013644    2.785113    -1.743304
H     -0.133238    3.487839    -0.524520
H     -0.879115    3.560440    -2.543006
C     1.685231    3.260340    -2.364080
H     1.671063    3.188193    -3.457509
H     1.886997    4.308871    -2.121595
C     2.789566    2.373534    -1.763531
H     3.762863    2.613636    -2.208586
H     2.886746    2.527179    -0.682666
P     2.474712    0.557291    -2.028888
H     3.435918    -0.133345    -1.265338
H     2.900282    0.267212    -3.340522
P     0.476954    -2.737407    -1.130854
H     -0.617605    -3.629734    -1.170010
H     1.428199    -3.509318    -1.830373
C     1.053549    -2.848220    0.645010
H     0.954775    -3.878818    1.001362
H     2.123407    -2.611754    0.662067
C     0.261573    -1.908230    1.569588
H     -0.788381    -2.211665    1.652182
H     0.677191    -1.922712    2.584546
P     0.272290    -0.142164    0.978974
H     1.486494    0.417322    1.425705
H     -0.660593    0.556657    1.769767
P     -2.580829    -0.248490    -1.484228
H     -3.151057    -1.091030    -0.510480
H     -3.230919    0.975482    -1.231459
C     -3.192158    -0.855703    -3.137747
H     -3.085104    -1.946268    -3.142157
H     -4.264512    -0.636932    -3.213215
C     -2.426203    -0.205916    -4.296663
H     -2.649149    0.863513    -4.382395
H     -2.706021    -0.670036    -5.250574
P     -0.582158    -0.368281    -4.077086
H     -0.225417    -1.648386    -4.545124
H     0.013357    0.471150    -5.038542
