15

Mn     -0.000410    0.000388    -0.001182
O     0.208870    2.098407    -0.331776
H     0.796940    2.346424    -1.067357
H     0.484010    2.607134    0.452095
O     2.095173    -0.178883    0.334963
H     2.555326    -0.804769    -0.252049
H     2.330072    -0.405550    1.253123
O     -0.206792    -2.097978    0.329013
H     -0.489270    -2.606938    -0.452034
H     -0.785048    -2.347987    1.071615
O     -2.095501    0.179718    -0.337481
H     -2.560154    0.794564    0.257535
H     -2.332558    0.415012    -1.252832
Cl     -0.327065    0.368780    2.173502
Cl     0.326130    -0.368604    -2.175089
