31

Mn     0.010813    -0.021724    -0.031404
N     0.402757    2.228513    0.283724
H     -0.432390    2.752962    0.564732
C     1.411634    3.006650    0.128065
H     2.374082    2.597698    -0.179655
H     1.356754    4.085343    0.291661
N     2.033242    -0.353629    -0.371293
H     2.562521    -0.426639    0.502580
C     2.759029    -0.511264    -1.417563
H     2.319569    -0.465409    -2.412031
H     3.833377    -0.696130    -1.340999
N     -0.381886    -2.273684    -0.344519
H     0.455052    -2.798671    -0.619093
C     -1.391443    -3.052050    -0.194689
H     -2.356334    -2.643320    0.105462
H     -1.334761    -4.130940    -0.356337
N     -2.011705    0.312498    0.310304
H     -2.531638    0.438859    -0.563048
C     -2.747814    0.412562    1.356395
H     -2.320213    0.305309    2.351239
H     -3.820084    0.609027    1.279305
N     0.327372    -0.419477    1.973292
H     0.120956    -1.394243    2.217794
C     0.750779    0.285933    2.958716
H     1.006899    1.335267    2.820647
H     0.864396    -0.145026    3.956833
N     -0.303467    0.377418    -2.036278
H     -0.068854    1.344482    -2.285799
C     -0.753621    -0.318809    -3.016329
H     -1.040165    -1.359494    -2.872642
H     -0.859818    0.111413    -4.015575
