23

Mn     0.087283    0.177651    0.054163
O     0.358257    2.058330    0.333611
H     0.142092    2.758601    -0.321802
H     0.782342    2.472474    1.116015
O     2.000332    -0.195575    0.322203
H     2.716477    0.177622    -0.234443
H     2.382034    -0.408382    1.198446
O     -0.142864    -1.716643    -0.339725
H     -1.000014    -2.053643    -0.679744
H     0.285093    -2.432491    0.178264
O     -1.835930    0.387302    -0.320953
H     -2.210587    0.869034    -1.088893
H     -2.478373    0.456128    0.416237
N     -0.181366    -0.129403    1.982064
C     -0.398831    -0.298352    3.115878
C     -0.665127    -0.504526    4.522830
H     -0.474637    0.425545    5.077928
H     -1.712794    -0.802248    4.667184
H     -0.007330    -1.292998    4.915857
C     0.594927    -0.010655    -2.905261
O     0.335159    0.588099    -1.850958
H     0.682717    0.573977    -3.831197
H     0.741140    -1.099853    -2.933690
