25

Mn     -0.000741    0.001600    -0.001657
O     0.334424    1.894322    0.249892
C     0.184471    2.959019    0.852980
H     -0.449013    3.033564    1.749086
H     0.700584    3.854615    0.480535
O     1.893085    -0.248337    -0.338560
C     2.956061    -0.853684    -0.185652
H     3.027244    -1.749794    0.448210
H     3.853820    -0.483323    -0.699487
O     -0.337957    -1.891110    -0.252821
C     -0.185642    -2.957053    -0.853110
H     0.452756    -3.034000    -1.745513
H     -0.704882    -3.851400    -0.482020
O     -1.894787    0.251420    0.336098
C     -2.955306    0.859837    0.178011
H     -3.854804    0.496251    0.693604
H     -3.022593    1.752003    -0.461786
O     0.250580    -0.335977    1.891122
C     0.852125    -0.182835    2.956227
H     1.743851    0.456658    3.031902
H     0.482886    -0.702461    3.851115
O     -0.252720    0.339660    -1.894331
C     -0.852672    0.182755    -2.959806
H     -1.740064    -0.462659    -3.036139
H     -0.486518    0.705197    -3.854320
