19

Mn     0.093311    0.037412    -0.296744
S     -0.279216    2.661818    0.188882
H     0.267052    2.787334    1.418234
H     0.740149    3.273655    -0.454739
S     2.717100    0.455233    -0.588205
H     3.136073    -0.523743    -1.421563
H     3.255501    -0.095107    0.521973
S     0.514278    -2.613519    -0.678469
H     -0.653319    -3.209538    -1.009925
H     0.523789    -3.077320    0.590401
S     -2.511680    -0.386362    0.169414
H     -2.950001    0.761566    0.733574
H     -2.445021    -1.058757    1.339288
N     0.621822    -0.388188    2.723478
C     0.419523    -0.223652    1.583305
C     -0.885531    0.398791    -3.253886
O     -0.123080    0.379354    -2.284826
H     -1.945150    0.122681    -3.160886
H     -0.495597    0.698346    -4.235162
