23

Mn     0.002291    -0.104083    0.028798
O     -0.262125    1.971674    -0.346115
H     -0.405359    2.639888    0.352971
H     -0.462994    2.416047    -1.194450
O     2.047143    0.208936    0.163166
H     2.632282    -0.450571    0.592150
H     2.410886    1.094930    0.372649
O     0.356932    -2.171217    0.331942
H     0.305699    -2.623968    1.197079
H     0.423030    -2.875477    -0.344025
O     -2.007098    -0.429220    -0.263837
H     -2.425822    -1.299835    -0.418282
H     -2.695616    0.258040    -0.363005
N     -0.292471    0.178669    1.937714
C     -0.540923    0.319870    3.069581
C     -0.839629    0.498464    4.470333
H     -1.633660    1.250626    4.587739
H     -1.183502    -0.453855    4.900617
H     0.060606    0.833425    5.005709
C     1.162601    -0.308186    -2.687037
O     0.222896    -0.429530    -1.885417
H     0.976031    -0.591462    -3.734783
H     2.148823    0.066829    -2.379478
