40

Mn     0.053453    0.048955    0.154196
N     0.314300    2.019416    0.418799
C     0.518778    3.152796    0.553114
C     0.768812    4.574796    0.727798
H     1.844998    4.775437    0.676767
H     0.257850    5.144003    -0.057505
H     0.392550    4.901053    1.704608
N     2.016026    -0.297580    0.370519
C     3.161230    -0.446342    0.473822
C     4.595656    -0.641207    0.612924
H     5.134427    0.198552    0.159229
H     4.860616    -0.698795    1.675363
H     4.897364    -1.571431    0.117809
N     -0.203938    -1.892300    -0.193881
C     -0.415868    -2.994532    -0.484902
C     -0.677239    -4.377321    -0.847256
H     0.151957    -4.769539    -1.447386
H     -0.783079    -4.986676    0.058255
H     -1.604347    -4.441201    -1.428572
N     -1.881283    0.399824    -0.146677
C     -3.002190    0.539351    -0.408635
C     -4.407997    0.715648    -0.731971
H     -4.649749    0.162489    -1.647270
H     -5.028818    0.333785    0.087235
H     -4.628692    1.778026    -0.886094
C     -0.672806    -0.607848    4.790599
C     -1.277863    0.464479    4.120310
C     -1.026776    0.644176    2.772503
N     -0.212509    -0.194886    2.065847
C     0.378112    -1.235986    2.724877
C     0.168059    -1.468774    4.071443
H     -0.850433    -0.767397    5.850609
H     -1.935611    1.153548    4.639994
H     -1.471269    1.462357    2.223547
H     1.018539    -1.878974    2.137375
H     0.654761    -2.311004    4.552397
C     0.900284    0.790770    -2.741025
O     0.367465    0.337062    -1.734503
H     1.771691    1.456275    -2.666314
H     0.503535    0.528978    -3.730880
