27

Mn     0.085094    -0.081121    -0.018095
N     -0.153210    2.235307    0.386714
H     -1.056227    2.514063    0.787064
H     0.536257    2.672732    1.008875
H     -0.093761    2.779766    -0.480709
N     2.155435    0.160908    -0.377413
H     2.409065    1.148449    -0.499572
H     2.767802    -0.197535    0.365449
H     2.464608    -0.312217    -1.234887
N     0.403045    -2.411293    -0.313149
H     1.292382    -2.785629    0.036922
H     -0.303326    -3.031671    0.099086
H     0.405698    -2.663958    -1.307750
N     -1.990958    -0.423790    0.156169
H     -2.304928    -1.199025    -0.439866
H     -2.304371    -0.661003    1.105227
H     -2.553414    0.387900    -0.126345
N     0.368407    -0.303010    2.054510
H     -0.368160    0.138325    2.618927
H     0.398341    -1.287989    2.345734
H     1.241516    0.112897    2.401573
C     -0.237159    0.219047    -2.063544
N     -0.418388    0.392153    -3.193451
C     -0.645857    0.609635    -4.600314
H     -1.374068    -0.128627    -4.950797
H     0.306086    0.489955    -5.127147
H     -1.033418    1.624571    -4.734220
