19
02/26/2023 18:15, XYZ structure generated by mol3D Class, molSimplify
Co     -0.017034    0.021637    -0.008445
N     0.321372    2.136556    0.367672
C     0.489728    3.261311    0.550392
H     0.647672    4.313351    0.722504
N     2.110265    -0.314395    0.311678
C     3.234438    -0.496584    0.482860
H     4.286334    -0.666307    0.643357
N     -0.336456    -2.106199    -0.356867
C     -0.502180    -3.231847    -0.536774
H     -0.657480    -4.284813    -0.705361
C     -2.172706    0.332346    -0.246268
N     -3.313059    0.493555    -0.374586
H     -4.305491    0.634755    -0.485614
N     -0.354436    -0.274028    2.122559
C     -0.526997    -0.437989    3.249326
H     -0.689344    -0.590383    4.303588
C     0.403606    0.275117    -2.143350
N     0.623354    0.408562    -3.273275
H     0.814510    0.525122    -4.256682
