22
02/26/2023 18:15, XYZ structure generated by mol3D Class, molSimplify
Co     0.085518    -0.084368    -0.060685
N     0.368506    1.855690    -0.358107
C     0.538063    2.986355    -0.485151
H     0.697628    4.045708    -0.606395
N     2.279728    -0.458494    -0.355000
C     3.402494    -0.698835    -0.457242
H     4.451325    -0.924424    -0.554690
N     -0.203532    -2.025772    0.240290
C     -0.350095    -3.156487    0.390370
H     -0.487089    -4.216552    0.529297
N     -2.134628    0.257517    0.171173
C     -3.252397    0.445338    0.383387
H     -4.296969    0.620736    0.581631
N     0.382583    0.187597    1.902922
C     0.563333    0.335597    3.029132
H     0.732487    0.474526    4.084631
O     -0.206379    -0.426588    -1.987174
H     -1.155030    -0.533368    -2.174328
C     0.435765    0.236680    -3.119466
H     1.504260    0.244963    -2.914426
H     0.235884    -0.357026    -4.013383
H     0.054494    1.253377    -3.236462
