34
02/26/2023 18:15, XYZ structure generated by mol3D Class, molSimplify
Co     -0.052927    0.016407    -0.130319
O     -0.103436    2.140254    0.286947
H     0.176758    2.709406    -0.450256
C     -0.979324    2.929821    1.149705
H     -1.347304    2.255667    1.920898
H     -0.405921    3.739360    1.606522
H     -1.814471    3.333961    0.572498
O     1.975517    0.266628    0.340685
H     2.129596    1.164495    0.681911
C     3.199567    -0.257556    -0.249336
H     2.985589    -1.284258    -0.544148
H     3.492752    0.334162    -1.120428
H     3.992881    -0.251623    0.500550
O     0.005283    -2.107922    -0.634831
H     0.493822    -2.358191    -1.436290
C     0.085789    -3.219889    0.314640
H     -0.536214    -2.944968    1.162941
H     -0.300750    -4.124412    -0.159130
H     1.118180    -3.366203    0.640272
O     -2.140134    -0.455540    -0.233901
H     -2.191501    -1.303022    -0.709161
C     -3.326523    0.343179    -0.514263
H     -3.267045    1.224032    0.123427
H     -3.353573    0.638709    -1.566282
H     -4.217800    -0.232874    -0.257650
O     -0.393402    -0.402554    1.885111
H     -1.339681    -0.548661    2.050165
C     0.316434    -0.153028    3.131969
H     1.375898    -0.120567    2.885756
H     -0.002196    0.796307    3.569625
H     0.124307    -0.973598    3.826068
C     0.238909    0.388476    -2.296418
N     0.375420    0.582464    -3.431550
H     0.488473    0.752816    -4.421240
