31
02/26/2023 18:15, XYZ structure generated by mol3D Class, molSimplify
Co     -0.130539    -0.037182    -0.028552
O     0.014384    1.930137    0.208206
H     0.940295    2.228675    0.189157
C     -0.774059    2.762337    1.116965
H     -1.776006    2.339810    1.112885
H     -0.352006    2.735361    2.124671
H     -0.784019    3.781613    0.727182
O     2.176792    -0.073978    -0.546622
H     2.429053    0.078570    -1.472348
C     3.389061    -0.043695    0.261918
H     3.079767    -0.243006    1.287558
H     4.083847    -0.820499    -0.067360
H     3.869230    0.937010    0.202558
O     0.088441    -1.991116    -0.285515
H     1.032614    -2.135463    -0.486794
C     -0.743649    -2.882160    -1.088621
H     -1.775942    -2.659359    -0.823820
H     -0.577120    -2.713368    -2.155710
H     -0.503750    -3.912150    -0.818719
O     -2.303574    -0.132926    0.540894
H     -2.531069    -0.803816    1.205573
C     -3.489527    0.129733    -0.260616
H     -3.249909    0.976057    -0.904523
H     -3.751034    -0.741456    -0.868252
H     -4.324413    0.397814    0.390969
C     0.239942    -0.351703    1.878062
N     0.422314    -0.565926    3.001559
H     0.576755    -0.762185    3.979743
C     -0.506765    0.300432    -1.925261
N     -0.720829    0.543667    -3.037359
H     -0.923141    0.771983    -3.999769
