19
02/26/2023 18:15, XYZ structure generated by mol3D Class, molSimplify
Co     -0.000730    -0.004290    0.036688
C     0.391965    2.153153    -0.264225
N     0.597951    3.283849    -0.417304
H     0.776385    4.267383    -0.551861
C     2.172629    -0.287485    0.333593
N     3.312209    -0.436100    0.486660
H     4.303356    -0.566520    0.620531
C     -0.378124    -2.169445    0.278511
N     -0.574671    -3.304962    0.405291
H     -0.745002    -4.292900    0.516153
C     -2.168066    0.263896    -0.318123
N     -3.305015    0.403267    -0.497672
H     -4.293698    0.525448    -0.655382
C     -0.349503    0.396662    2.181542
N     -0.530803    0.605506    3.307388
H     -0.688452    0.786732    4.287105
N     0.331352    -0.367496    -2.117809
C     0.496493    -0.544885    -3.244183
H     0.651520    -0.711857    -4.297417
