25
02/26/2023 18:15, XYZ structure generated by mol3D Class, molSimplify
Co     0.045334    0.357144    -0.012874
C     -0.253901    2.258090    -0.254145
N     -0.479295    3.386287    -0.381224
H     -0.692028    4.368995    -0.468156
C     1.943244    0.650796    -0.006577
N     3.087074    0.831105    0.002936
H     4.083259    0.989912    0.017703
C     0.350465    -1.536496    0.188591
N     0.524878    -2.671995    0.334490
H     0.683399    -3.658493    0.476804
O     -1.929446    0.120370    -0.358651
H     -1.972091    -0.002718    -1.327391
C     -2.902725    -0.724918    0.316494
H     -2.826741    -0.509243    1.381360
H     -3.898510    -0.454197    -0.039942
H     -2.702537    -1.782985    0.125501
C     -0.236717    0.590656    2.130354
N     -0.359156    0.740181    3.274802
H     -0.465225    0.875915    4.268814
O     -0.153187    0.162497    -2.387678
H     -0.089283    1.017610    -2.843761
C     0.305746    -0.870178    -3.304544
H     0.149186    -1.823177    -2.799698
H     -0.285062    -0.843471    -4.223306
H     1.366929    -0.739672    -3.533370
