31
02/26/2023 18:15, XYZ structure generated by mol3D Class, molSimplify
Co     0.112804    -0.058853    -0.034763
O     0.151852    1.992400    0.380497
H     0.995845    2.430077    0.181466
C     -0.889040    3.004814    0.527219
H     -1.790615    2.474884    0.829912
H     -0.597237    3.715255    1.303310
H     -1.053179    3.518267    -0.423065
O     2.337934    -0.108518    0.106405
H     2.880976    0.128565    -0.663436
C     3.158965    -0.005247    1.312500
H     2.513717    -0.308686    2.133147
H     4.017031    -0.676208    1.231192
H     3.495717    1.024418    1.456978
O     0.493231    -2.143141    -0.079708
H     1.459949    -2.224936    -0.165763
C     -0.170738    -3.269326    -0.724179
H     -1.234457    -3.174390    -0.507504
H     -0.001642    -3.247632    -1.803723
H     0.206765    -4.200685    -0.297626
C     -2.063397    -0.198307    -0.227079
N     -3.214323    -0.295004    -0.329676
H     -4.216040    -0.378018    -0.425772
O     0.018509    -0.475901    2.045986
H     -0.018638    -1.441556    2.153571
C     -0.638074    0.187216    3.160098
H     -0.400801    1.246293    3.073269
H     -1.719880    0.032135    3.121755
H     -0.235176    -0.200351    4.098083
C     0.427070    0.287408    -2.211966
N     0.532766    0.480760    -3.350408
H     0.612503    0.648118    -4.343217
