19
02/26/2023 18:15, XYZ structure generated by mol3D Class, molSimplify
Co     -0.018770    0.012511    0.004648
N     0.359119    2.140714    0.332611
C     0.543540    3.266202    0.495386
H     0.716936    4.318832    0.648066
N     2.119167    -0.286403    -0.349529
C     3.245738    -0.451262    -0.523688
H     4.299631    -0.604645    -0.687749
N     -0.368691    -2.121813    -0.335281
C     -0.546460    -3.247360    -0.505004
H     -0.713148    -4.300078    -0.664206
C     -2.166832    0.275632    0.392448
N     -3.299733    0.412704    0.595242
H     -4.285511    0.532576    0.771850
C     0.280833    -0.315229    2.159086
N     0.434451    -0.481647    3.295829
H     0.569940    -0.627707    4.284466
C     -0.252147    0.334163    -2.155976
N     -0.376685    0.498903    -3.296403
H     -0.485520    0.643664    -4.288525
