25
02/26/2023 18:15, XYZ structure generated by mol3D Class, molSimplify
Co     -0.046374    0.019557    -0.147164
C     -0.391651    2.178042    0.181411
N     -0.523996    3.322706    0.313069
H     -0.630767    4.320187    0.420834
C     2.144220    0.287852    -0.364396
N     3.287975    0.452873    -0.461383
H     4.282372    0.603106    -0.542742
C     0.235172    -2.150712    -0.517795
N     0.424804    -3.280730    -0.698397
H     0.596899    -4.263706    -0.849567
O     -2.187937    -0.225235    -0.113275
H     -2.492356    -1.083977    -0.452994
C     -3.145545    0.227643    0.889913
H     -2.800145    1.200944    1.235251
H     -4.130532    0.329014    0.429533
H     -3.182605    -0.476796    1.724605
C     0.240921    -0.252172    2.044978
N     0.417150    -0.392669    3.182411
H     0.574098    -0.514685    4.171686
O     -0.350070    0.383473    -2.186237
H     -1.266841    0.649779    -2.369978
C     0.297795    -0.053273    -3.413753
H     1.320137    -0.321753    -3.149948
H     -0.221708    -0.919383    -3.832145
H     0.306784    0.770227    -4.130882
