22
02/26/2023 18:15, XYZ structure generated by mol3D Class, molSimplify
Co     0.045217    -0.007234    0.076598
C     0.329946    1.897905    -0.052544
N     0.496129    3.039089    -0.150515
H     0.637874    4.033959    -0.237960
C     1.935350    -0.310722    -0.180816
N     3.070202    -0.494206    -0.318753
H     4.060775    -0.657377    -0.421058
C     -0.269298    -1.906758    -0.073314
N     -0.458156    -3.042922    -0.186480
H     -0.622910    -4.032692    -0.289270
C     -1.850573    0.297076    0.244540
N     -2.986243    0.481277    0.372996
H     -3.974375    0.644036    0.495764
C     0.278875    -0.057536    2.253219
N     0.397773    -0.086564    3.407291
H     0.502719    -0.111753    4.410042
O     -0.132471    0.004803    -2.333845
H     0.697287    0.035057    -2.836008
C     -1.234351    0.019538    -3.273554
H     -2.147207    -0.021790    -2.678948
H     -1.226897    0.939642    -3.864989
H     -1.191474    -0.852266    -3.932704
