19
02/26/2023 18:15, XYZ structure generated by mol3D Class, molSimplify
Co     -0.011656    -0.006830    -0.008755
N     -0.334362    2.123091    0.340252
C     -0.514760    3.247974    0.509555
H     -0.683158    4.300376    0.668365
N     2.114529    0.339952    0.352127
C     3.237433    0.510705    0.543371
H     4.287980    0.670884    0.721696
C     0.329557    -2.153907    -0.337470
N     0.504936    -3.285816    -0.515092
H     0.658673    -4.270687    -0.669091
C     -2.165783    -0.338196    -0.297793
N     -3.301372    -0.514218    -0.448863
H     -4.289722    -0.666189    -0.580603
N     -0.322813    -0.319335    2.131398
C     -0.481427    -0.494261    3.258727
H     -0.630192    -0.657605    4.313388
C     0.363131    0.347411    -2.145417
N     0.561535    0.530989    -3.272493
H     0.733677    0.691989    -4.253179
