19
02/26/2023 18:15, XYZ structure generated by mol3D Class, molSimplify
Co     0.000208    0.000016    0.003267
C     0.000229    1.934267    0.004532
N     0.000239    3.091154    0.005416
H     0.000257    4.099851    0.006223
C     1.934376    -0.000014    0.004465
N     3.091260    -0.000032    0.005189
H     4.099959    -0.000059    0.005868
C     0.000230    -1.934239    0.004687
N     0.000265    -3.091126    0.005690
H     0.000295    -4.099823    0.006597
C     -1.933996    0.000054    0.004315
N     -3.090881    0.000078    0.005069
H     -4.099580    0.000110    0.005764
N     -0.000545    -0.000075    2.346196
C     -0.000474    -0.000147    3.499530
H     -0.000434    -0.000208    4.576558
N     0.000108    0.000033    -2.336893
C     -0.000508    0.000065    -3.490210
H     -0.001009    0.000097    -4.567238
