34
02/26/2023 18:15, XYZ structure generated by mol3D Class, molSimplify
Co     -0.124566    0.062140    0.158773
O     0.655099    2.162841    -0.029717
H     0.837132    2.504761    -0.921020
C     0.564756    3.301309    0.881781
H     0.447673    2.889233    1.882116
H     1.483838    3.889088    0.826572
H     -0.297523    3.923887    0.628838
O     1.786408    -0.263284    0.565447
H     2.217715    0.608010    0.480790
C     2.655799    -1.319295    0.059863
H     2.134043    -2.259339    0.233458
H     2.857457    -1.182645    -1.005152
H     3.586298    -1.301751    0.630422
O     -0.917228    -2.042892    0.381399
H     -0.983980    -2.352885    1.299892
C     -0.897663    -3.217345    -0.483817
H     -0.975409    -2.856570    -1.508814
H     0.033371    -3.775045    -0.353130
H     -1.754481    -3.855984    -0.257513
O     -2.077202    0.409793    0.026551
H     -2.505659    -0.465037    -0.042257
C     -2.728448    1.371620    -0.861689
H     -2.183179    2.307939    -0.752219
H     -2.692075    1.023698    -1.896431
H     -3.761658    1.499083    -0.534057
O     -0.411244    0.421523    2.092742
H     -1.352941    0.614744    2.245659
C     0.194239    -0.164131    3.286012
H     1.235988    -0.356631    3.041459
H     0.124584    0.559207    4.100526
H     -0.314244    -1.092409    3.560854
N     0.150434    -0.201228    -1.825503
C     0.318479    -0.338914    -2.957128
H     0.475645    -0.470709    -4.016749
