31
02/26/2023 18:15, XYZ structure generated by mol3D Class, molSimplify
Co     0.070552    0.010449    0.008042
O     0.449548    2.115667    0.497366
H     1.414593    2.217522    0.559231
C     -0.117447    3.347588    -0.022465
H     -1.199111    3.212947    -0.045397
H     0.127185    4.175576    0.646949
H     0.252712    3.558962    -1.030226
O     2.096394    -0.071714    -0.253666
H     2.393557    0.026639    -1.173272
C     3.104222    -0.849721    0.470518
H     2.804679    -0.862679    1.515152
H     3.167577    -1.864633    0.067827
H     4.066992    -0.345542    0.366157
O     0.010625    -2.304159    0.144178
H     0.818443    -2.758424    -0.146613
C     -1.110826    -3.203211    -0.102030
H     -2.001790    -2.694268    0.264639
H     -1.212306    -3.409138    -1.170818
H     -0.968787    -4.133825    0.452258
C     -1.810811    0.205540    0.304670
N     -2.941120    0.354923    0.509044
H     -3.925322    0.492078    0.686833
O     0.426518    -0.330318    1.921883
H     0.259478    -1.286547    2.029672
C     -0.001300    0.400867    3.114731
H     0.225680    1.449012    2.937809
H     -1.071227    0.262272    3.289074
H     0.575706    0.024814    3.961655
C     -0.208637    0.217629    -1.873760
N     -0.376038    0.346788    -3.012768
H     -0.536525    0.458742    -4.003390
