25
02/26/2023 18:15, XYZ structure generated by mol3D Class, molSimplify
Co     -0.000196    0.000210    -0.001941
N     -0.316589    1.959899    -0.253410
C     -0.459898    3.097380    -0.350854
H     -0.594102    4.163322    -0.441479
N     2.184824    0.323576    -0.424153
C     3.296904    0.554362    -0.624012
H     4.336716    0.769955    -0.808496
N     0.316335    -1.959206    0.250658
C     0.460284    -3.096498    0.349393
H     0.595110    -4.162265    0.441180
N     -2.186010    -0.322957    0.419681
C     -3.298476    -0.553292    0.617880
H     -4.338553    -0.768809    0.800968
O     0.332646    0.375304    1.936670
H     -0.502263    0.532671    2.409632
C     1.273001    -0.291364    2.832623
H     2.213696    -0.378880    2.292564
H     1.411252    0.340371    3.712153
H     0.900548    -1.277296    3.120344
O     -0.333399    -0.373433    -1.940556
H     0.500951    -0.533421    -2.413590
C     -1.272142    0.295492    -2.836507
H     -2.210991    0.390085    -2.294452
H     -0.894784    1.278364    -3.128294
H     -1.415984    -0.338367    -3.713607
