28
02/26/2023 18:15, XYZ structure generated by mol3D Class, molSimplify
Co     -0.136296    0.057311    -0.092525
C     -0.378214    1.926639    -0.481011
N     -0.533187    3.048382    -0.724273
H     -0.663683    4.026586    -0.935359
C     1.736487    0.238139    -0.445408
N     2.873259    0.336885    -0.643813
H     3.863789    0.431678    -0.812041
O     -0.051608    -1.946417    0.294639
H     0.353973    -2.124972    1.159697
C     0.319650    -3.020666    -0.634448
H     -0.278508    -2.866779    -1.527756
H     1.386021    -2.966984    -0.864361
H     0.073160    -3.974655    -0.164884
O     -2.097788    -0.245557    0.094809
H     -2.170742    -1.199921    0.287018
C     -3.056582    0.486462    0.920433
H     -3.055793    1.516561    0.567682
H     -4.043953    0.047326    0.767258
H     -2.772922    0.440351    1.974445
C     0.173516    0.405112    2.123796
N     0.363376    0.682085    3.235918
H     0.530721    0.925721    4.201200
O     -0.647634    -0.550988    -2.208436
H     -1.586647    -0.346956    -2.353670
C     0.079743    -0.358167    -3.448072
H     1.080322    -0.761392    -3.290005
H     -0.405249    -0.912554    -4.254957
H     0.141024    0.703213    -3.707080
