19
02/26/2023 18:15, XYZ structure generated by mol3D Class, molSimplify
Co     0.000644    -0.000658    0.011012
N     0.367504    2.120481    0.343493
C     0.554000    3.245143    0.508449
H     0.729104    4.297119    0.663385
N     2.129062    -0.296641    -0.344790
C     3.255180    -0.463202    -0.520756
H     4.308693    -0.618010    -0.686476
N     -0.365978    -2.121446    -0.321079
C     -0.552268    -3.246229    -0.485422
H     -0.727239    -4.298308    -0.639813
N     -2.128446    0.295217    0.366605
C     -3.254415    0.461481    0.543826
H     -4.307812    0.616041    0.710502
C     0.268000    -0.316701    2.163714
N     0.406553    -0.477860    3.302883
H     0.528385    -0.619414    4.293913
C     -0.269518    0.318427    -2.141196
N     -0.409449    0.480908    -3.280009
H     -0.532414    0.623667    -4.270722
