22
02/26/2023 18:15, XYZ structure generated by mol3D Class, molSimplify
Co     -0.003770    -0.041501    -0.129930
N     0.364816    2.071697    -0.412971
C     0.511916    3.205701    -0.550369
H     0.649938    4.266666    -0.679232
N     2.111329    -0.327523    0.192100
C     3.229563    -0.505515    0.402912
H     4.276196    -0.670951    0.599759
N     -0.379753    -2.153712    0.180537
C     -0.549633    -3.274647    0.384407
H     -0.709711    -4.323242    0.575530
N     -2.138578    0.239119    -0.417821
C     -3.264955    0.434323    -0.558521
H     -4.318756    0.616841    -0.690903
N     -0.300185    0.315054    2.004951
C     -0.458057    0.502171    3.130226
H     -0.606411    0.677524    4.183092
O     0.146200    -0.337247    -2.155627
H     -0.452845    -0.987934    -2.558083
C     1.195129    0.016702    -3.103229
H     1.787205    0.798893    -2.631774
H     1.817058    -0.856578    -3.313219
H     0.739314    0.396339    -4.019924
