19
02/26/2023 18:15, XYZ structure generated by mol3D Class, molSimplify
Co     -0.000168    -0.000316    0.004138
C     0.050428    2.199449    0.005044
N     0.079778    3.358267    0.005534
H     0.102100    4.366576    0.005931
C     2.199563    0.049814    0.005244
N     3.358387    0.078937    0.005745
H     4.366700    0.101068    0.006144
C     -0.049956    -2.199828    0.004973
N     -0.078724    -3.358658    0.005400
H     -0.100567    -4.366978    0.005741
C     -2.199708    -0.049681    0.004508
N     -3.358543    -0.078249    0.004744
H     -4.366866    -0.099928    0.004950
N     -0.000947    -0.000138    2.222007
C     -0.001138    -0.000008    3.374262
H     -0.001339    0.000093    4.451935
N     0.000253    -0.000227    -2.213032
C     0.000337    -0.000133    -3.365283
H     0.000408    -0.000059    -4.442960
