19
02/26/2023 18:15, XYZ structure generated by mol3D Class, molSimplify
Co     0.039368    -0.003595    0.037204
C     -0.310511    2.153919    -0.263142
N     -0.486945    3.289361    -0.416888
H     -0.641571    4.276848    -0.551530
C     2.173881    0.334779    -0.387772
N     3.297733    0.510521    -0.610659
H     4.276019    0.662373    -0.803869
C     0.323470    -2.173356    0.289020
N     0.471974    -3.315143    0.422617
H     0.601346    -4.308613    0.538653
N     -2.107719    -0.338403    0.383599
C     -3.234133    -0.505402    0.557950
H     -4.287525    -0.662175    0.722043
C     0.277483    0.379068    2.193300
N     0.402485    0.578075    3.328353
H     0.512198    0.750222    4.316158
N     -0.284094    -0.365647    -2.108245
C     -0.458591    -0.546371    -3.232520
H     -0.621568    -0.716234    -4.284067
