19
02/26/2023 18:15, XYZ structure generated by mol3D Class, molSimplify
Co     -0.032586    0.000329    -0.033993
N     0.016534    2.307712    0.014016
C     0.044117    3.460136    0.040385
H     0.069498    4.536490    0.064627
N     1.943262    -0.000329    -0.040604
C     3.092899    -0.000666    -0.029229
H     4.170696    -0.001001    -0.017746
N     0.015494    -2.307590    0.015388
C     0.042779    -3.459986    0.043337
H     0.067917    -4.536307    0.069157
C     -1.952870    0.000449    -0.046236
N     -3.109238    0.000494    -0.039480
H     -4.117933    0.000531    -0.029737
N     -0.037163    0.000839    1.941870
C     -0.024556    0.001152    3.091497
H     -0.011947    0.001364    4.169283
C     -0.046910    -0.000750    -1.954368
N     -0.041343    -0.001332    -3.110746
H     -0.032549    -0.001765    -4.119451
