25
02/26/2023 18:15, XYZ structure generated by mol3D Class, molSimplify
Co     -0.000896    -0.000809    -0.011277
C     0.372472    1.901265    0.215218
N     0.610149    3.020700    0.347074
H     0.828038    4.008927    0.468244
C     1.911610    -0.292078    -0.270270
N     3.045863    -0.458510    -0.379083
H     4.050574    -0.601459    -0.466732
C     -0.374450    -1.902839    -0.238054
N     -0.612324    -3.022191    -0.370254
H     -0.830327    -4.010368    -0.491623
C     -1.913378    0.290218    0.248043
N     -3.047641    0.456344    0.357207
H     -4.052340    0.599193    0.445177
O     0.350457    -0.243342    1.908475
H     0.539090    -1.173196    2.139588
C     -0.359436    0.384119    3.061243
H     -0.371149    1.456787    2.880718
H     -1.364330    -0.029727    3.152762
H     0.245790    0.158790    3.942601
O     -0.352338    0.241653    -1.931036
H     -0.541387    1.171473    -2.161970
C     0.358837    -0.384820    -3.083555
H     0.371301    -1.457546    -2.903401
H     -0.246011    -0.159691    -3.965229
H     1.363450    0.029877    -3.174328
