31
02/26/2023 18:15, XYZ structure generated by mol3D Class, molSimplify
Co     0.053317    -0.012380    -0.029237
O     -0.289956    2.006788    -0.110349
H     -0.051418    2.483099    -0.929722
C     -1.181493    2.882600    0.683839
H     -1.406644    2.345836    1.601438
H     -0.639421    3.809710    0.890051
H     -2.086950    3.085486    0.105962
O     2.054499    0.186956    -0.206942
H     2.407654    0.902945    -0.770596
C     3.193030    -0.584040    0.349624
H     2.770853    -1.323105    1.026690
H     3.731113    -1.054072    -0.477978
H     3.845173    0.114561    0.881137
O     0.333928    -2.035091    -0.180686
H     0.827606    -2.324528    -0.972956
C     -0.290685    -3.224164    0.440382
H     -0.787491    -2.887214    1.347662
H     -1.004725    -3.660347    -0.262846
H     0.505323    -3.935736    0.676003
C     -2.119895    -0.369196    0.000240
N     -3.261971    -0.540932    -0.031404
H     -4.267185    -0.691674    -0.061323
O     0.066531    0.002193    1.990067
H     -0.508032    -0.610168    2.490258
C     0.803243    0.862426    2.944272
H     1.413485    1.536886    2.348042
H     0.080386    1.410942    3.552952
H     1.420839    0.216874    3.575219
C     -0.138155    0.051439    -2.249384
N     -0.267616    0.057238    -3.397738
H     -0.384803    0.060427    -4.408398
