31
02/26/2023 18:15, XYZ structure generated by mol3D Class, molSimplify
Co     -0.045199    0.135547    0.117211
O     -0.307997    2.058863    -0.115012
H     0.542439    2.458319    -0.385154
C     -1.433794    2.786112    -0.760559
H     -2.335238    2.531692    -0.210689
H     -1.204812    3.848123    -0.639545
H     -1.503253    2.518097    -1.815761
O     1.847638    0.646814    0.313848
H     2.029354    1.070195    1.176723
C     3.015190    -0.236963    0.008628
H     2.885926    -0.586450    -1.012206
H     3.899233    0.400734    0.086313
H     3.051796    -1.061946    0.718844
O     0.349835    -1.758558    0.380500
H     0.444367    -1.995261    1.322817
C     -0.228706    -2.931378    -0.333780
H     -0.092779    -2.752313    -1.398319
H     0.360874    -3.797911    -0.025006
H     -1.278817    -3.060132    -0.069169
O     -1.958970    -0.110984    -0.155779
H     -2.186120    -0.433815    -1.046836
C     -3.011993    -0.554228    0.804624
H     -3.055675    0.198831    1.588376
H     -3.951402    -0.569617    0.247741
H     -2.773088    -1.544041    1.194318
C     -0.325099    0.445930    2.051411
N     -0.458073    0.695351    3.168895
H     -0.585139    0.923871    4.154564
C     0.281403    -0.055332    -1.827769
N     0.489182    -0.109745    -2.960383
H     0.681521    -0.155614    -3.960715
