28
02/26/2023 18:15, XYZ structure generated by mol3D Class, molSimplify
Co     0.027944    -0.056591    0.091624
O     -0.266010    1.961220    -0.215071
H     0.571212    2.432174    -0.411156
C     -1.390327    2.884808    -0.366718
H     -2.286252    2.368681    -0.034876
H     -1.182300    3.774380    0.243059
H     -1.458682    3.184017    -1.422471
O     1.979644    0.346292    0.371950
H     2.203716    0.748609    1.234540
C     3.232429    -0.124569    -0.267354
H     2.948340    -0.618122    -1.192418
H     3.859536    0.749954    -0.462435
H     3.737764    -0.811919    0.416362
O     0.294961    -2.091551    0.370528
H     0.810648    -2.355223    1.161233
C     -0.384882    -3.269731    -0.170259
H     -0.903488    -2.958621    -1.072708
H     0.382789    -4.025944    -0.386407
H     -1.074486    -3.666455    0.586473
N     -2.065589    -0.391120    -0.193087
C     -3.192479    -0.590520    -0.337070
H     -4.251888    -0.777490    -0.471977
N     -0.273280    0.211598    2.185024
C     -0.509895    0.372334    3.302691
H     -0.730543    0.523382    4.353742
N     0.370724    -0.354111    -1.989223
C     0.493384    -0.485371    -3.128528
H     0.611693    -0.609248    -4.199041
