19
02/26/2023 18:15, XYZ structure generated by mol3D Class, molSimplify
Co     -0.015209    -0.000022    0.001000
N     -0.018410    1.919210    0.001014
C     -0.000816    3.069201    0.000963
H     0.016873    4.155197    0.000916
N     1.945394    -0.000171    0.001102
C     3.095545    -0.000294    0.001120
H     4.181042    -0.000413    0.001107
N     -0.018488    -1.919248    0.000896
C     -0.000906    -3.069240    0.000772
H     0.016800    -4.155236    0.000658
C     -1.927575    0.000181    0.001219
N     -3.077279    0.000327    0.001355
H     -4.096262    0.000466    0.001467
C     -0.022450    -0.000098    1.951991
N     -0.008423    -0.000147    3.102181
H     0.007647    -0.000190    4.120428
C     -0.022147    0.000045    -1.949994
N     -0.007887    0.000081    -3.100182
H     0.008415    0.000112    -4.118425
