22
02/26/2023 18:15, XYZ structure generated by mol3D Class, molSimplify
Co     0.088580    -0.007347    -0.061175
N     0.385834    2.052248    -0.358582
C     0.558801    3.190323    -0.427617
H     0.721547    4.260131    -0.493070
N     2.149239    -0.334353    -0.384170
C     3.287964    -0.517814    -0.404206
H     4.358177    -0.690852    -0.425289
N     -0.200249    -2.050881    0.283232
C     -0.335200    -3.163251    0.555617
H     -0.463571    -4.209844    0.808582
N     -1.986411    0.333060    0.168195
C     -3.086257    0.540746    0.448028
H     -4.121227    0.734408    0.708532
N     0.414739    0.301167    1.998067
C     0.596222    0.464847    3.125175
H     0.766785    0.619905    4.184070
O     -0.313454    -0.306896    -2.112323
H     -1.275684    -0.437522    -2.289317
C     0.416028    -0.189953    -3.342427
H     1.461552    -0.010624    -3.110639
H     0.262278    -1.126473    -3.921735
H     -0.039732    0.611140    -3.958618
