19
02/26/2023 18:15, XYZ structure generated by mol3D Class, molSimplify
Co     0.000018    0.000019    -0.005078
C     0.000042    1.946411    -0.005569
N     0.000061    3.096955    -0.005811
H     0.000095    4.115297    -0.006000
C     1.946411    0.000038    -0.005549
N     3.096955    0.000070    -0.005773
H     4.115297    0.000089    -0.005946
C     -0.000006    -1.946374    -0.005612
N     -0.000021    -3.096918    -0.005836
H     -0.000050    -4.115260    -0.005991
C     -1.946374    -0.000001    -0.005632
N     -3.096918    -0.000030    -0.005874
H     -4.115260    -0.000044    -0.006042
N     -0.000006    0.000011    1.915275
C     -0.000033    -0.000033    3.065496
H     -0.000079    -0.000078    4.151614
N     -0.000007    -0.000023    -1.925666
C     -0.000051    -0.000052    -3.075886
H     -0.000073    -0.000078    -4.162004
