31
02/26/2023 18:15, XYZ structure generated by mol3D Class, molSimplify
Co     0.095237    -0.089920    0.193739
O     -0.186540    1.927270    -0.038775
H     0.660793    2.377081    -0.232614
C     -1.295942    2.789071    -0.487385
H     -2.209141    2.382963    -0.061304
H     -1.097829    3.798359    -0.112045
H     -1.324808    2.796574    -1.582737
O     2.051550    0.305102    0.457158
H     2.299470    0.653370    1.335697
C     3.298153    -0.111273    -0.240797
H     2.996568    -0.578651    -1.173855
H     3.894224    0.786232    -0.423071
H     3.838797    -0.811381    0.400676
O     0.356863    -2.104788    0.362714
H     1.040865    -2.404458    0.994621
C     -0.233455    -3.284357    -0.299772
H     -0.951851    -2.916549    -1.027213
H     0.576483    -3.840349    -0.783748
H     -0.713371    -3.905605    0.463167
N     -2.003389    -0.405558    -0.125899
C     -3.128968    -0.594921    -0.294290
H     -4.187269    -0.772682    -0.452354
O     -0.189343    -0.044137    2.203364
H     -0.714851    -0.778075    2.578651
C     -0.105205    1.041827    3.205124
H     0.260358    1.923448    2.682548
H     -1.102848    1.217209    3.615722
H     0.583937    0.729340    3.995585
N     0.423243    -0.298278    -1.918026
C     0.537603    -0.400277    -3.061260
H     0.649300    -0.497000    -4.135513
