19
02/26/2023 18:15, XYZ structure generated by mol3D Class, molSimplify
Co     0.001897    0.007834    0.029445
N     0.295226    2.035875    -0.342255
C     0.460485    3.162144    -0.532072
H     0.615403    4.222031    -0.707488
N     2.026486    -0.333091    -0.317633
C     3.152442    -0.518981    -0.489154
H     4.212485    -0.693350    -0.644578
N     -0.294549    -2.034854    0.314232
C     -0.457058    -3.163844    0.489312
H     -0.609655    -4.225014    0.658914
N     -2.035050    0.329955    0.288145
C     -3.164166    0.512582    0.443216
H     -4.225742    0.684656    0.591298
N     0.329172    0.304262    2.059707
C     0.513711    0.465576    3.188408
H     0.688954    0.616437    4.249668
C     -0.328244    -0.302044    -2.076653
N     -0.509516    -0.464115    -3.202441
H     -0.672516    -0.606068    -4.197776
