25
02/26/2023 18:15, XYZ structure generated by mol3D Class, molSimplify
Co     0.009461    0.168370    -0.208368
N     -0.270305    2.257797    0.043105
C     -0.367598    3.383269    0.276688
H     -0.459443    4.441433    0.494922
N     2.079002    0.505881    -0.496341
C     3.214253    0.681136    -0.597255
H     4.280890    0.848198    -0.692995
N     0.331707    -1.900076    -0.523825
C     0.585543    -3.023168    -0.588526
H     0.822213    -4.079202    -0.652612
O     -2.021282    -0.174591    0.109170
H     -2.535201    -0.315256    -0.716416
C     -2.902393    -0.326993    1.254857
H     -2.331382    -0.111710    2.152600
H     -3.755047    0.360986    1.127091
H     -3.302697    -1.355689    1.252248
N     0.365026    -0.123411    1.874112
C     0.694022    -0.266212    2.970355
H     0.999663    -0.400688    4.001447
O     -0.367572    0.479827    -2.215448
H     -0.340300    1.433871    -2.443317
C     -0.209221    -0.303924    -3.443914
H     -0.294050    -1.354766    -3.181059
H     -0.998015    0.005922    -4.144167
H     0.768231    -0.071111    -3.889652
