34
02/26/2023 18:15, XYZ structure generated by mol3D Class, molSimplify
Co     0.018742    -0.082193    0.049482
O     -0.319297    1.828567    -0.030784
H     0.432393    2.288400    0.395758
C     -0.752782    2.638816    -1.206619
H     -1.583481    2.107329    -1.664994
H     -1.087415    3.598307    -0.804729
H     0.082222    2.771130    -1.895670
O     1.894095    0.367387    0.394629
H     2.355219    0.646283    -0.421266
C     2.855205    -0.504133    1.142610
H     2.397986    -0.724647    2.104055
H     3.064388    -1.403459    0.564222
H     3.754801    0.100946    1.281964
O     0.376065    -1.974707    0.309273
H     0.441528    -2.143539    1.271388
C     -0.169916    -3.184692    -0.363679
H     -0.094183    -3.017162    -1.436436
H     0.476151    -4.017421    -0.074497
H     -1.197499    -3.370179    -0.042013
O     -1.887261    -0.320968    -0.273580
H     -2.131136    -1.213873    -0.581753
C     -3.060430    0.282363    0.429818
H     -2.770794    1.287210    0.727482
H     -3.871412    0.318326    -0.300960
H     -3.337583    -0.338627    1.284568
O     -0.200258    -0.058374    2.014435
H     -1.094062    -0.372003    2.254383
C     0.096584    1.092592    2.919572
H     1.135542    1.370189    2.755019
H     -0.591762    1.911423    2.707516
H     -0.032687    0.723501    3.940002
C     0.329953    -0.263992    -1.866817
N     0.508728    -0.379830    -2.998922
H     0.663226    -0.480732    -4.001989
