31
02/26/2023 18:15, XYZ structure generated by mol3D Class, molSimplify
Co     -0.019231    0.016626    -0.066818
O     -0.286945    2.008189    0.264342
H     0.548336    2.516425    0.249346
C     -1.417083    2.955334    0.364536
H     -2.331990    2.369872    0.391845
H     -1.286827    3.532082    1.286004
H     -1.392600    3.616577    -0.507115
O     1.974586    0.338259    -0.304444
H     2.283306    0.391880    -1.230288
C     3.146295    0.582896    0.583049
H     2.778510    0.573021    1.606482
H     3.872149    -0.216633    0.417828
H     3.574793    1.554133    0.325181
O     0.292340    -1.965772    -0.404481
H     1.226884    -2.173495    -0.606192
C     -0.424924    -3.233434    -0.148502
H     -1.420379    -2.975959    0.201151
H     -0.463597    -3.788152    -1.091900
H     0.130638    -3.797979    0.605740
O     -1.996859    -0.305002    0.147141
H     -2.341470    -0.251029    1.060248
C     -3.121053    -0.656169    -0.757963
H     -2.696338    -0.805298    -1.747633
H     -3.587537    -1.571022    -0.385821
H     -3.837532    0.169174    -0.754471
C     0.227436    -0.319466    2.100624
N     0.341557    -0.497877    3.237013
H     0.444795    -0.654027    4.236569
C     -0.252633    0.361942    -2.238195
N     -0.367809    0.551330    -3.372718
H     -0.471674    0.716810    -4.370693
