34
02/26/2023 18:15, XYZ structure generated by mol3D Class, molSimplify
Co     -0.147515    -0.057758    0.209663
O     -0.449961    1.916624    -0.073933
H     -0.489302    2.457170    0.738473
C     -0.688742    2.801210    -1.243644
H     -0.727014    2.164635    -2.123355
H     -1.635290    3.325166    -1.091714
H     0.136771    3.515441    -1.304733
O     1.794674    0.407090    0.533737
H     2.068042    1.276743    0.179951
C     3.001030    -0.422696    0.752996
H     2.703439    -1.245504    1.398169
H     3.368052    -0.777582    -0.213841
H     3.749510    0.203656    1.244249
O     0.155620    -2.011330    0.553691
H     0.216530    -2.169365    1.517953
C     0.387112    -3.279711    -0.176245
H     0.245666    -3.073579    -1.233744
H     1.407158    -3.614474    0.031338
H     -0.335536    -4.015867    0.187676
O     -2.123622    -0.411117    -0.049295
H     -2.331059    -1.352607    -0.209566
C     -3.353809    0.389002    -0.260896
H     -3.155464    1.388843    0.116166
H     -3.581494    0.397220    -1.330569
H     -4.161655    -0.086072    0.301653
O     -0.436515    -0.021431    2.283556
H     -1.344726    -0.258050    2.552073
C     0.164222    0.780607    3.379575
H     1.179516    1.023082    3.073503
H     -0.428910    1.683298    3.543409
H     0.174826    0.162099    4.279335
N     0.216806    -0.366688    -1.894561
C     0.433347    -0.536208    -3.015194
H     0.634955    -0.695026    -4.069239
