28
02/26/2023 18:15, XYZ structure generated by mol3D Class, molSimplify
Co     -0.160223    -0.133946    -0.064964
C     -0.350103    2.018341    -0.416975
N     -0.406222    3.159273    -0.589894
H     -0.450514    4.163227    -0.742514
C     2.012123    0.187131    0.200850
N     3.144884    0.380658    0.324022
H     4.141066    0.554141    0.432219
C     0.112480    -2.277765    0.297975
N     0.281364    -3.404771    0.488043
H     0.429777    -4.396732    0.654437
O     -2.143085    -0.391590    -0.390366
H     -2.410607    -1.292423    -0.661559
C     -3.376438    0.396090    -0.120729
H     -3.058487    1.390750    0.185836
H     -3.954311    0.443706    -1.046926
H     -3.946790    -0.107078    0.663785
O     -0.461753    0.190060    1.944511
H     -1.404145    0.157614    2.207898
C     0.363365    0.188421    3.164687
H     1.400983    0.294395    2.859708
H     0.041751    1.033895    3.784063
H     0.194860    -0.752200    3.702389
O     0.123819    -0.475453    -2.080068
H     -0.657769    -0.274067    -2.635137
C     1.269935    -0.770788    -2.953771
H     2.083597    -1.111661    -2.318352
H     0.961604    -1.550342    -3.659788
H     1.538107    0.140307    -3.502157
