19
02/26/2023 18:15, XYZ structure generated by mol3D Class, molSimplify
Co     -0.014244    -0.014239    -0.017156
N     -0.022014    1.941644    -0.024993
C     -0.006118    3.091670    -0.009064
H     0.009808    4.176972    0.006891
N     1.941639    -0.022008    -0.024855
C     3.091663    -0.006109    -0.008845
H     4.176965    0.009819    0.007182
C     -0.016986    -1.925370    -0.019786
N     -0.001709    -3.074934    -0.004468
H     0.014113    -4.093670    0.011372
C     -1.925376    -0.016980    -0.019919
N     -3.074941    -0.001703    -0.004680
H     -4.093678    0.014119    0.011094
N     -0.022016    -0.021870    1.938743
C     -0.006089    -0.005856    3.088768
H     0.009875    0.010186    4.174067
C     -0.016990    -0.017121    -1.928280
N     -0.001738    -0.001951    -3.077845
H     0.014056    0.013772    -4.096585
