22
02/26/2023 18:15, XYZ structure generated by mol3D Class, molSimplify
Co     -0.076291    0.070217    -0.020445
C     0.199175    1.967946    0.265904
N     0.361774    3.099484    0.399969
H     0.500674    4.102045    0.514434
C     1.815735    -0.258785    0.241700
N     2.940736    -0.452071    0.394622
H     3.935307    -0.624660    0.535129
C     -0.361504    -1.826444    -0.300448
N     -0.528216    -2.954104    -0.463699
H     -0.675776    -3.952328    -0.603235
C     -1.971348    0.415554    -0.242736
N     -3.093529    0.636196    -0.375479
H     -4.085426    0.837787    -0.490387
C     -0.359132    -0.178860    1.849979
N     -0.531879    -0.325530    2.978073
H     -0.685058    -0.454928    3.977046
O     0.175255    0.431222    -1.956373
H     1.102015    0.625609    -2.191720
C     -0.464776    -0.239258    -3.124047
H     -1.536810    -0.245458    -2.938658
H     -0.239467    0.383395    -3.992480
H     -0.063308    -1.246425    -3.243004
