22
02/26/2023 18:15, XYZ structure generated by mol3D Class, molSimplify
Co     0.087959    -0.094003    -0.076717
N     0.363953    1.793325    -0.355487
C     0.535025    2.926058    -0.460588
H     0.696495    3.995060    -0.565374
N     1.971182    -0.417539    -0.323785
C     3.093527    -0.646013    -0.428910
H     4.153087    -0.860396    -0.533466
N     -0.187341    -1.979881    0.213674
C     -0.329899    -3.110139    0.371143
H     -0.466081    -4.177441    0.518145
N     -1.800474    0.214572    0.178829
C     -2.916461    0.404573    0.386532
H     -3.971198    0.582631    0.578018
N     0.386481    0.162027    1.831740
C     0.565907    0.303810    2.959033
H     0.735290    0.438234    4.023073
O     -0.178618    -0.441145    -1.951625
H     -1.128179    -0.594284    -2.130782
C     0.409269    0.288710    -3.111014
H     1.483933    0.323719    -2.952982
H     0.175739    -0.330499    -3.982082
H     -0.033639    1.280791    -3.197043
