19
02/26/2023 18:15, XYZ structure generated by mol3D Class, molSimplify
Co     -0.014273    -0.000042    -0.017248
N     -0.019428    1.917649    -0.022426
C     -0.000709    3.067380    -0.003667
H     0.017695    4.153140    0.014757
N     1.944441    -0.000157    -0.027886
C     3.094464    -0.000246    -0.011130
H     4.179690    -0.000324    0.005699
N     -0.019449    -1.917713    -0.022319
C     -0.000755    -3.067443    -0.003446
H     0.017652    -4.153201    0.015116
C     -1.930523    0.000169    -0.021666
N     -3.079802    0.000300    -0.006437
H     -4.098654    0.000420    0.010006
N     -0.024943    -0.000257    1.941556
C     -0.008301    -0.000452    3.091581
H     0.008423    -0.000639    4.176806
C     -0.018721    0.000212    -1.933481
N     -0.003549    0.000396    -3.082760
H     0.012843    0.000576    -4.101613
