19
02/26/2023 18:15, XYZ structure generated by mol3D Class, molSimplify
Co     -0.000105    -0.000095    -0.017977
N     0.000094    1.918755    -0.026138
C     0.000273    3.068413    -0.006006
H     0.000460    4.154248    0.013233
N     1.918743    -0.000130    -0.026226
C     3.068403    -0.000089    -0.006144
H     4.154238    -0.000022    0.013050
N     -0.000139    -1.918913    -0.026149
C     -0.000198    -3.068573    -0.006074
H     -0.000253    -4.154408    0.013129
N     -1.918924    0.000112    -0.026061
C     -3.068583    0.000197    -0.005934
H     -4.154418    0.000262    0.013314
N     0.000032    -0.000054    1.943084
C     0.000093    -0.000051    3.093120
H     0.000138    -0.000052    4.178310
C     -0.000056    0.000050    -1.938602
N     -0.000026    0.000136    -3.087549
H     0.000003    0.000213    -4.106552
