19
02/26/2023 18:15, XYZ structure generated by mol3D Class, molSimplify
Co     -0.050968    -0.002615    -0.073638
C     0.372255    2.124514    -0.285835
N     0.578343    3.251118    -0.422184
H     0.757246    4.244939    -0.546570
C     2.049891    -0.301612    0.354384
N     3.173696    -0.465352    0.552119
H     4.167059    -0.611284    0.721324
C     -0.347197    -2.127231    0.309263
N     -0.520689    -3.253341    0.488407
H     -0.677158    -4.246862    0.642114
N     -2.091933    0.304713    -0.382045
C     -3.219980    0.472734    -0.563663
H     -4.280824    0.630940    -0.734048
C     -0.278701    0.330129    2.053190
N     -0.429323    0.512213    3.181479
H     -0.568501    0.673461    4.177115
N     0.272240    -0.333906    -2.108836
C     0.439818    -0.515576    -3.236933
H     0.598005    -0.686745    -4.297638
