31
02/26/2023 18:15, XYZ structure generated by mol3D Class, molSimplify
Co     0.090165    -0.078338    0.212888
O     -0.148101    1.837177    0.024387
H     0.737809    2.201730    -0.174362
C     -1.174043    2.596276    -0.740987
H     -2.126197    2.421752    -0.246672
H     -0.893068    3.648930    -0.652366
H     -1.183328    2.281051    -1.784849
O     1.954191    0.337240    0.474691
H     2.139062    0.351074    1.435911
C     3.123872    -0.323125    -0.190351
H     3.061527    -0.075295    -1.245660
H     4.009967    0.135339    0.256041
H     3.093778    -1.397336    -0.010176
O     0.489705    -1.968181    0.475708
H     0.663490    -2.156460    1.419587
C     -0.165217    -3.159076    -0.134524
H     -0.179310    -2.996995    -1.209132
H     0.475397    -4.010381    0.109166
H     -1.166951    -3.289650    0.275128
N     -1.832164    -0.395940    -0.029857
C     -2.953957    -0.592542    -0.203598
H     -4.013056    -0.775634    -0.365502
O     -0.100292    0.028282    2.134899
H     -0.881288    -0.484706    2.427309
C     -0.114898    1.304424    2.927863
H     0.757992    1.879730    2.629106
H     -1.038534    1.846510    2.731605
H     -0.034094    0.996665    3.973563
N     0.373217    -0.302643    -1.712167
C     0.509269    -0.425955    -2.848915
H     0.643702    -0.544351    -3.920633
