34
02/26/2023 18:15, XYZ structure generated by mol3D Class, molSimplify
Co     -0.254744    -0.053129    0.385762
O     -0.376930    1.892986    0.267323
H     -1.162942    2.242766    0.731730
C     -0.143467    2.737685    -0.942270
H     0.832955    2.459843    -1.333118
H     -0.937691    2.576266    -1.671156
H     -0.129807    3.772981    -0.592776
O     1.631058    0.220074    0.748432
H     1.782144    1.182571    0.836376
C     2.839371    -0.397278    0.136876
H     2.778187    -1.466152    0.321924
H     2.889799    -0.162845    -0.926388
H     3.695278    0.020819    0.672964
O     -0.217220    -1.981614    0.724254
H     -0.014286    -2.085679    1.676121
C     0.297030    -3.155077    -0.036127
H     -0.203483    -3.152693    -1.001367
H     1.379972    -3.095556    -0.133868
H     0.003342    -4.036914    0.539082
O     -2.179927    -0.312315    0.314051
H     -2.310210    -1.278423    0.430361
C     -3.163321    0.178379    -0.692241
H     -3.057753    1.259984    -0.744890
H     -2.980269    -0.298500    -1.655077
H     -4.150593    -0.081520    -0.301594
O     -0.539586    0.048841    2.292491
H     -1.502065    0.118988    2.460287
C     0.209914    0.833833    3.318988
H     1.228229    0.454722    3.320319
H     0.159401    1.898353    3.085816
H     -0.277630    0.617411    4.273070
N     0.018252    -0.319602    -1.532616
C     0.176556    -0.490857    -2.660823
H     0.327054    -0.651792    -3.725209
