19
02/26/2023 18:15, XYZ structure generated by mol3D Class, molSimplify
Co     0.048054    0.025718    0.026109
N     -0.326513    2.073652    -0.302264
C     -0.509180    3.201134    -0.465928
H     -0.678850    4.262080    -0.617713
N     2.084993    0.300888    -0.333965
C     3.211979    0.463563    -0.526231
H     4.271594    0.617341    -0.707183
C     0.336292    -2.100056    0.286031
N     0.507924    -3.230056    0.437715
H     0.663991    -4.226470    0.574027
C     -2.070897    -0.295712    0.298413
N     -3.199930    -0.450355    0.470902
H     -4.196712    -0.584227    0.629918
N     0.316437    0.332394    2.073099
C     0.472736    0.514178    3.202699
H     0.619443    0.686302    4.264781
C     -0.332327    -0.339917    -2.069172
N     -0.507123    -0.518951    -3.194250
H     -0.655692    -0.675145    -4.189372
