28
02/26/2023 18:15, XYZ structure generated by mol3D Class, molSimplify
Cr     0.063847    0.036896    -0.054091
O     -0.055074    2.068106    0.344312
H     0.347526    2.641715    -0.330048
C     -1.182177    2.788129    0.943130
H     -1.604586    2.125248    1.694034
H     -0.807716    3.701670    1.408859
H     -1.924125    3.021985    0.176418
O     2.024148    0.250475    0.476638
H     2.190912    1.040613    1.019621
C     3.239947    -0.090290    -0.257299
H     3.018476    -0.996530    -0.817017
H     3.508465    0.721327    -0.937499
H     4.043318    -0.278580    0.457371
N     0.319154    -1.996276    -0.417455
C     0.491175    -3.126154    -0.578469
H     0.651632    -4.180609    -0.731353
N     -1.968290    -0.289036    -0.371175
C     -3.090452    -0.442555    -0.593300
H     -4.137989    -0.588026    -0.800343
O     -0.457507    -0.162368    1.954245
H     -0.990130    -0.953381    2.140365
C     0.375870    0.117220    3.119800
H     0.722675    1.145761    3.020729
H     -0.234731    0.031938    4.020431
H     1.219845    -0.574724    3.157248
N     0.467796    0.351742    -2.073039
C     0.595778    0.527594    -3.206996
H     0.717163    0.686966    -4.266099
