19
02/26/2023 18:15, XYZ structure generated by mol3D Class, molSimplify
Cr     0.010419    0.000277    -0.003735
N     0.029613    2.522925    -0.004109
C     0.031744    3.677164    -0.004216
H     0.033996    4.753702    -0.004324
N     2.139384    -0.000917    -0.003446
C     3.290826    -0.001468    -0.003204
H     4.368911    -0.001957    -0.003010
N     0.028873    -2.522762    -0.004080
C     0.030718    -3.677003    -0.004159
H     0.032692    -4.753539    -0.004243
C     -2.152398    0.000616    -0.002859
N     -3.310535    0.000690    -0.002338
H     -4.319712    0.000653    -0.001938
C     -0.016891    0.000274    2.170857
N     -0.027437    0.000279    3.328801
H     -0.034460    0.000287    4.337889
C     -0.017182    0.000211    -2.178108
N     -0.027811    0.000181    -3.336050
H     -0.034885    0.000152    -4.345138
