31
02/26/2023 18:15, XYZ structure generated by mol3D Class, molSimplify
Cr     -0.131915    -0.003564    -0.001239
O     0.143307    2.010696    0.206058
H     0.048376    2.381703    1.098828
C     0.985108    2.914062    -0.579454
H     0.959988    2.556572    -1.606466
H     0.563842    3.919546    -0.524580
H     2.008183    2.898867    -0.196944
O     1.865382    -0.293656    0.207359
H     2.186691    -0.256906    1.123723
C     2.813484    -1.078393    -0.584010
H     2.582541    -0.892232    -1.630987
H     3.825158    -0.733943    -0.362603
H     2.704968    -2.139000    -0.345552
O     -0.399493    -2.020747    -0.207970
H     -0.302107    -2.390943    -1.100856
C     -1.240627    -2.926601    0.575470
H     -1.219336    -2.568859    1.602491
H     -2.262798    -2.914754    0.190420
H     -0.816436    -3.930916    0.521844
O     -2.128475    0.284423    -0.206861
H     -2.458351    0.223068    -1.118962
C     -3.096999    1.045596    0.582847
H     -2.775062    0.986675    1.620463
H     -3.113017    2.083753    0.243520
H     -4.080657    0.585510    0.472472
C     -0.341047    -0.080191    2.035288
N     -0.409151    -0.118938    3.200179
H     -0.486897    -0.179162    4.203583
C     0.078435    0.070416    -2.037249
N     0.147537    0.106775    -3.202143
H     0.224720    0.165882    -4.205635
