28
02/26/2023 18:15, XYZ structure generated by mol3D Class, molSimplify
Cr     -0.081410    -0.012872    0.024357
C     -0.366070    2.032679    -0.176466
N     -0.449818    3.189394    -0.286299
H     -0.499110    4.192361    -0.377756
C     1.930742    0.118907    0.343626
N     3.075203    0.228306    0.519531
H     4.065634    0.335661    0.668900
C     0.203804    -2.018918    0.221305
N     0.349245    -3.169880    0.337709
H     0.486039    -4.162708    0.441352
O     -2.113023    -0.300425    -0.295102
H     -2.364638    -1.237953    -0.320573
C     -3.301519    0.506570    -0.557352
H     -3.004073    1.551392    -0.488218
H     -3.676915    0.288037    -1.559839
H     -4.063040    0.284153    0.193494
O     -0.365554    0.214491    1.997537
H     -0.906580    0.973927    2.271734
C     0.222030    -0.412041    3.183374
H     0.746436    -1.300412    2.838799
H     0.916193    0.285792    3.656081
H     -0.581766    -0.688014    3.868463
O     0.302323    -0.008836    -1.959135
H     -0.148326    0.662791    -2.498137
C     1.149042    -0.834392    -2.820424
H     1.567362    -1.613662    -2.187235
H     0.533571    -1.274633    -3.607495
H     1.943370    -0.217153    -3.244899
