34
02/26/2023 18:15, XYZ structure generated by mol3D Class, molSimplify
Cr     -0.130238    0.005355    0.042263
O     -0.020595    2.051288    -0.251541
H     0.769861    2.438781    -0.661654
C     -0.919912    3.106132    0.211699
H     -1.844539    2.608707    0.501662
H     -0.474973    3.626920    1.062287
H     -1.113271    3.800094    -0.608403
O     2.307851    -0.042818    0.077844
H     2.897322    0.642165    0.436163
C     3.149292    -1.067499    -0.524031
H     2.483470    -1.875381    -0.828958
H     3.673288    -0.668154    -1.396504
H     3.869982    -1.445711    0.205803
O     -0.259493    -2.075360    0.178533
H     -1.037430    -2.466957    -0.253909
C     0.121352    -2.901864    1.322509
H     1.081107    -2.523732    1.670867
H     -0.628690    -2.826372    2.112611
H     0.232303    -3.934999    0.988936
O     -2.590058    0.008570    0.057063
H     -3.114156    -0.494942    0.702808
C     -3.523840    0.543493    -0.924559
H     -2.932462    1.124994    -1.632611
H     -4.034534    -0.267549    -1.450976
H     -4.256254    1.194217    -0.439325
O     -0.229537    0.234795    2.113128
H     -1.061542    0.536385    2.514353
C     0.852223    0.344083    3.092183
H     1.755471    0.036912    2.567226
H     0.941847    1.377266    3.435063
H     0.652004    -0.324838    3.931426
C     -0.042577    -0.279456    -2.145857
N     0.024783    -0.422957    -3.294276
H     0.086446    -0.550394    -4.293796
