31
02/26/2023 18:15, XYZ structure generated by mol3D Class, molSimplify
Cr     0.146054    -0.043072    0.042891
O     0.204588    2.400762    0.104802
H     0.762558    2.897223    0.727072
C     -0.639721    3.367629    -0.580361
H     -1.277770    2.801396    -1.259742
H     -1.261480    3.909779    0.137146
H     -0.028782    4.069271    -1.154684
O     2.172106    0.153211    -0.328406
H     2.444769    1.043016    -0.611718
C     3.289130    -0.527265    0.323064
H     2.944277    -1.535412    0.551668
H     4.129471    -0.571687    -0.371826
H     3.568748    -0.006574    1.241405
O     0.232875    -2.477798    0.065105
H     0.864207    -2.897911    -0.543046
C     -0.659674    -3.518566    0.552317
H     -1.373064    -3.032351    1.219123
H     -1.196819    -3.985665    -0.277481
H     -0.096791    -4.274169    1.107251
C     -2.017862    -0.153648    0.342857
N     -3.166418    -0.202355    0.492199
H     -4.167578    -0.241146    0.616459
O     0.517102    -0.282226    2.060201
H     0.629891    -1.209831    2.332537
C     0.081932    0.529829    3.195371
H     -0.080437    1.536053    2.809710
H     -0.847280    0.132276    3.610029
H     0.870068    0.537076    3.950508
C     -0.183614    0.081033    -2.115927
N     -0.325980    0.119235    -3.265472
H     -0.444535    0.145743    -4.267618
