19
02/26/2023 18:15, XYZ structure generated by mol3D Class, molSimplify
Cr     -0.000195    -0.000197    -0.004015
C     -0.000181    2.171025    -0.011577
N     -0.000188    3.329118    -0.015601
H     -0.000193    4.338304    -0.019318
C     2.171104    -0.000231    -0.011557
N     3.329202    -0.000249    -0.015568
H     4.338389    -0.000272    -0.019276
C     -0.000228    -2.171386    -0.011624
N     -0.000247    -3.329478    -0.015906
H     -0.000272    -4.338663    -0.019928
C     -2.171468    -0.000182    -0.011653
N     -3.329564    -0.000189    -0.015953
H     -4.338751    -0.000195    -0.019989
N     0.000120    0.000153    2.521876
C     0.000574    0.000616    3.676195
H     0.000985    0.001025    4.752777
N     0.000223    0.000188    -2.543917
C     0.000317    0.000276    -3.698277
H     0.000374    0.000339    -4.774815
