22
02/26/2023 18:15, XYZ structure generated by mol3D Class, molSimplify
Cr     -0.055604    -0.074652    -0.081356
C     -0.451178    1.919183    -0.343667
N     -0.652685    3.056251    -0.478435
H     -0.820700    4.043753    -0.588201
C     1.951398    0.163690    0.245447
N     3.086783    0.320359    0.441438
H     4.068526    0.463701    0.618030
C     0.326583    -2.045909    0.321808
N     0.520986    -3.168300    0.554368
H     0.681896    -4.141283    0.761559
C     -2.082585    -0.286894    -0.270443
N     -3.233061    -0.428457    -0.362318
H     -4.229378    -0.560981    -0.433347
C     -0.356296    0.205574    1.957108
N     -0.526423    0.365929    3.093559
H     -0.675016    0.505449    4.081341
O     0.217423    -0.373872    -2.023910
H     0.996634    -0.893953    -2.287883
C     -0.477738    0.100787    -3.226921
H     -1.335778    0.674032    -2.883893
H     0.203702    0.730991    -3.801645
H     -0.799305    -0.764795    -3.809097
