19
02/26/2023 18:15, XYZ structure generated by mol3D Class, molSimplify
Cr     -0.000048    -0.000012    -0.004748
N     -0.000002    2.302068    -0.005342
C     0.000062    3.455052    -0.005912
H     0.000107    4.532326    -0.006393
N     2.301586    -0.000055    -0.005347
C     3.454564    -0.000071    -0.005927
H     4.531838    -0.000097    -0.006415
N     -0.000073    -2.302082    -0.005334
C     -0.000066    -3.455066    -0.005933
H     -0.000069    -4.532339    -0.006436
N     -2.301667    0.000027    -0.005333
C     -3.454644    0.000035    -0.005940
H     -4.531919    0.000053    -0.006447
C     0.000006    0.000041    2.156674
N     0.000034    0.000082    3.314127
H     0.000073    0.000117    4.323198
C     -0.000059    -0.000018    -2.166072
N     -0.000086    -0.000028    -3.323526
H     -0.000097    -0.000040    -4.332596
