28
02/26/2023 18:15, XYZ structure generated by mol3D Class, molSimplify
Cr     -0.149998    0.107974    -0.075897
O     -0.046950    2.515015    0.160193
H     -0.080636    3.061478    -0.641823
C     -0.392326    3.349368    1.302107
H     -0.390143    2.685887    2.165743
H     0.352074    4.138447    1.434573
H     -1.386098    3.785520    1.171165
O     1.840850    0.458629    0.312775
H     1.923341    1.428891    0.381605
C     3.077697    -0.112739    -0.213973
H     2.946223    -1.192887    -0.229389
H     3.270821    0.261889    -1.222074
H     3.896523    0.153073    0.457041
N     0.325125    -2.281143    -0.397771
C     0.453534    -3.417517    -0.554262
H     0.577105    -4.477611    -0.700229
N     -2.247495    -0.185455    -0.382896
C     -3.369329    -0.342707    -0.595221
H     -4.419314    -0.490307    -0.794190
O     -0.452383    -0.097599    1.963133
H     -1.377901    -0.216258    2.234758
C     0.418308    -0.704891    2.974332
H     1.437989    -0.431757    2.712313
H     0.157642    -0.289811    3.949457
H     0.295554    -1.790032    2.968392
N     0.147567    0.435197    -2.181791
C     0.298273    0.557313    -3.317839
H     0.438897    0.670910    -4.381186
