31
02/26/2023 18:15, XYZ structure generated by mol3D Class, molSimplify
Cr     -0.031457    -0.028175    -0.020922
O     0.140954    1.971748    0.328218
H     1.049078    2.310217    0.412798
C     -0.831567    3.060059    0.252542
H     -1.806712    2.581278    0.171610
H     -0.773452    3.656349    1.164936
H     -0.631522    3.673779    -0.628276
O     2.423236    -0.013022    0.163124
H     2.959627    0.053301    -0.644127
C     3.325609    -0.177870    1.292088
H     2.694308    -0.222061    2.179523
H     3.895848    -1.106252    1.198827
H     4.007329    0.673607    1.368799
O     0.095618    -2.043178    -0.358041
H     0.985328    -2.435702    -0.350282
C     -0.928809    -3.087778    -0.341410
H     -1.881358    -2.561349    -0.321067
H     -0.841336    -3.688581    -1.248349
H     -0.809041    -3.706218    0.550608
O     -2.472528    -0.027060    -0.202307
H     -2.995206    -0.049471    0.616216
C     -3.391499    0.076776    -1.324890
H     -2.772041    0.084100    -2.221369
H     -4.065859    -0.783288    -1.352041
H     -3.966843    1.004535    -1.266488
C     -0.323422    -0.366678    2.162999
N     -0.473591    -0.529276    3.301510
H     -0.599462    -0.668388    4.293570
C     0.234270    0.309347    -2.207980
N     0.370319    0.471925    -3.348267
H     0.482101    0.610536    -4.342038
