31
02/26/2023 18:15, XYZ structure generated by mol3D Class, molSimplify
Cr     -0.198134    0.026990    -0.107660
O     -0.534594    2.046105    0.325685
H     -1.486000    2.241227    0.359342
C     0.215569    3.278093    0.106043
H     1.204373    3.136200    0.542379
H     0.285938    3.494150    -0.962595
H     -0.283499    4.096259    0.627761
O     2.206687    0.527516    -0.054862
H     2.514786    1.427408    -0.246849
C     3.309111    -0.381755    -0.331928
H     2.948149    -1.381287    -0.095036
H     3.590932    -0.333329    -1.387105
H     4.167484    -0.139863    0.300044
O     0.154056    -1.953250    -0.632808
H     -0.154410    -2.235660    -1.509496
C     0.359782    -3.138858    0.202926
H     0.827144    -2.788336    1.119215
H     -0.600574    -3.612076    0.418270
H     1.022105    -3.828173    -0.323733
N     -2.651641    -0.029995    0.397989
C     -3.778099    -0.227649    0.558847
H     -4.829122    -0.409648    0.712962
O     0.372022    -0.397175    1.842102
H     1.236939    0.027554    1.990378
C     -0.421379    -0.344014    3.068201
H     -1.295415    -0.970086    2.898506
H     0.172174    -0.750639    3.888783
H     -0.720595    0.685298    3.278697
N     -0.556563    0.358092    -2.205901
C     -0.726575    0.563366    -3.327516
H     -0.886397    0.754676    -4.377266
