25
02/26/2023 18:15, XYZ structure generated by mol3D Class, molSimplify
Cr     -0.092959    0.027016    -0.092160
N     -0.443553    2.043351    0.216033
C     -0.557201    3.179576    0.385404
H     -0.665184    4.238882    0.548577
N     1.956756    0.176648    0.299283
C     3.079912    0.323698    0.514810
H     4.129159    0.459519    0.717347
N     0.226789    -1.992655    -0.424772
C     0.378476    -3.131984    -0.532546
H     0.525570    -4.194384    -0.633324
O     -2.053094    -0.265458    -0.372973
H     -2.294383    -1.029553    -0.923572
C     -3.264434    0.335353    0.185107
H     -2.939539    1.117307    0.866955
H     -3.860971    0.758158    -0.625974
H     -3.827857    -0.429280    0.723435
N     -0.343249    -0.203247    1.975032
C     -0.477566    -0.387377    3.105345
H     -0.601934    -0.558330    4.161635
O     0.237691    0.405379    -2.027865
H     -0.229957    1.172595    -2.400476
C     1.092097    -0.190859    -3.054015
H     1.637312    -0.999462    -2.573292
H     0.467703    -0.576281    -3.862783
H     1.785353    0.566436    -3.425444
