31
02/26/2023 18:15, XYZ structure generated by mol3D Class, molSimplify
Cr     -0.055625    -0.040573    0.164911
O     -0.353902    1.911010    0.645485
H     0.194162    2.249686    1.373580
C     -0.937471    3.034723    -0.079758
H     -1.612033    2.611191    -0.820438
H     -1.494554    3.661127    0.619779
H     -0.147443    3.609797    -0.568269
O     1.937755    0.309428    -0.083121
H     2.163911    0.491531    -1.010591
C     3.156253    -0.074601    0.625934
H     2.924532    -0.073574    1.688888
H     3.477422    -1.068197    0.303112
H     3.933285    0.663805    0.419038
O     0.229914    -2.010008    -0.184649
H     0.661158    -2.501033    0.534235
C     -0.471409    -2.955712    -1.051028
H     -0.894019    -2.377770    -1.869107
H     0.248162    -3.681482    -1.434415
H     -1.265064    -3.453190    -0.489259
O     -2.054535    -0.403829    0.406462
H     -2.289803    -0.572015    1.334057
C     -3.272943    -0.063985    -0.322838
H     -3.022511    -0.049203    -1.381438
H     -4.024872    -0.833036    -0.134382
H     -3.640434    0.913861    -0.001948
N     0.268972    -0.388766    2.166305
C     0.375902    -0.568310    3.304494
H     0.481893    -0.734075    4.364184
N     -0.363544    0.299729    -1.829359
C     -0.442171    0.483473    -2.968861
H     -0.524218    0.653274    -4.029691
