34
02/26/2023 18:15, XYZ structure generated by mol3D Class, molSimplify
Cr     0.068515    0.089295    0.207628
O     0.314863    2.076805    0.731407
H     1.221173    2.180001    1.074566
C     -0.090895    3.318534    0.080890
H     -1.137631    3.199495    -0.192161
H     0.009725    4.139913    0.792801
H     0.519161    3.499702    -0.807319
O     2.164979    0.117608    0.629674
H     2.701689    0.388123    -0.134991
C     2.972751    -0.786149    1.448318
H     2.365318    -1.045093    2.313098
H     3.230207    -1.680328    0.874342
H     3.879705    -0.269367    1.768467
O     0.196137    -1.906087    -0.195304
H     0.675121    -2.456738    0.445786
C     -0.381241    -2.754280    -1.236112
H     -0.959569    -2.096852    -1.882105
H     0.420517    -3.234460    -1.800751
H     -1.031295    -3.503936    -0.779410
O     -1.977999    0.073998    -0.053000
H     -2.471274    -0.599195    0.443313
C     -2.887507    0.732663    -0.985001
H     -2.309643    1.501704    -1.493077
H     -3.268278    0.009171    -1.709885
H     -3.709308    1.186722    -0.427325
O     -0.068509    -0.351392    2.261629
H     0.145687    0.427941    2.805157
C     -1.154429    -1.064762    2.922907
H     -1.340533    -1.967547    2.339328
H     -0.841557    -1.347896    3.929996
H     -2.051433    -0.440671    2.969602
N     0.324126    0.516305    -1.796738
C     0.539484    0.695184    -2.918832
H     0.735029    0.862800    -3.965188
