28
02/26/2023 18:15, XYZ structure generated by mol3D Class, molSimplify
Cr     -0.037396    0.261311    -0.107245
C     -0.374128    2.430051    0.157302
N     -0.570860    3.564963    0.288782
H     -0.745373    4.553355    0.399452
C     2.092321    0.599515    0.105580
N     3.229203    0.781646    0.235459
H     4.219378    0.940277    0.349238
C     0.335908    -1.902541    -0.347057
N     0.508205    -3.041907    -0.476113
H     0.657710    -4.034119    -0.588378
O     -2.036641    -0.031559    -0.343545
H     -2.333739    -0.161190    -1.261058
C     -3.063033    -0.421631    0.621604
H     -2.611671    -0.295456    1.605437
H     -3.927048    0.235709    0.507948
H     -3.343864    -1.464531    0.459664
O     -0.080783    0.064247    2.342913
H     -0.105898    0.881135    2.867288
C     0.144796    -1.048665    3.246602
H     0.147223    -1.946045    2.627936
H     1.109264    -0.948523    3.752473
H     -0.660326    -1.115976    3.983395
O     -0.111129    0.425936    -2.507084
H     -0.418199    1.264485    -2.892109
C     0.614260    -0.279056    -3.553838
H     0.930829    -1.232894    -3.131726
H     -0.039993    -0.460474    -4.410442
H     1.491851    0.294926    -3.863369
