25
02/26/2023 18:15, XYZ structure generated by mol3D Class, molSimplify
Cr     0.001027    -0.000152    -0.026251
N     0.306111    1.999622    0.286365
C     0.438825    3.135620    0.434796
H     0.564878    4.204727    0.574784
N     2.008982    -0.327439    0.228141
C     3.129534    -0.559336    0.372153
H     4.184434    -0.776760    0.509137
N     -0.304314    -2.000182    -0.338071
C     -0.436900    -3.136025    -0.487839
H     -0.562893    -4.204964    -0.629230
N     -2.006627    0.327717    -0.281254
C     -3.127260    0.560170    -0.423689
H     -4.182234    0.778135    -0.559198
O     -0.277011    -0.285837    1.892679
H     -1.088987    -0.765229    2.149760
C     0.359840    0.277689    3.123235
H     1.280571    0.760623    2.807218
H     -0.337318    0.990326    3.566277
H     0.562735    -0.560906    3.791083
O     0.278981    0.285506    -1.945367
H     1.098282    0.752302    -2.202360
C     -0.365212    -0.269620    -3.175884
H     -1.286840    -0.749911    -2.858491
H     -0.566604    0.572824    -3.839335
H     0.326817    -0.983670    -3.624707
