22
02/26/2023 18:15, XYZ structure generated by mol3D Class, molSimplify
Cr     -0.040548    0.023298    -0.133662
C     0.257737    2.070902    0.276864
N     0.413719    3.195060    0.484812
H     0.549405    4.187451    0.666190
C     2.017258    -0.324381    0.200713
N     3.139130    -0.520945    0.386014
H     4.128366    -0.697419    0.550817
C     -0.359492    -2.046592    -0.383048
N     -0.522959    -3.179383    -0.529915
H     -0.663648    -4.179230    -0.658293
C     -2.116182    0.375051    -0.300260
N     -3.249479    0.580087    -0.373596
H     -4.248706    0.764770    -0.434363
C     -0.324015    -0.288589    1.924100
N     -0.486334    -0.455727    3.053706
H     -0.630637    -0.603674    4.050584
O     0.216839    0.323432    -2.065825
H     1.093172    0.662183    -2.337069
C     -0.574786    0.029411    -3.306191
H     -1.514574    -0.411458    -2.982794
H     -0.733254    0.977225    -3.822755
H     0.007152    -0.670865    -3.907335
