19
02/26/2023 18:15, XYZ structure generated by mol3D Class, molSimplify
Cr     -0.004241    -0.001583    -0.026405
C     0.300285    2.069623    -0.348435
N     0.463467    3.195427    -0.537136
H     0.607726    4.189057    -0.705159
C     2.068278    -0.341282    -0.299281
N     3.194501    -0.527888    -0.461941
H     4.188528    -0.692946    -0.606797
C     -0.300639    -2.065118    0.346491
N     -0.464322    -3.190841    0.535185
H     -0.609218    -4.184773    0.700799
C     -2.068526    0.344789    0.297799
N     -3.194864    0.530810    0.460341
H     -4.189364    0.695075    0.602930
C     0.334357    0.300620    2.020839
N     0.520123    0.466895    3.146620
H     0.684410    0.613586    4.140815
N     -0.330591    -0.301682    -2.032909
C     -0.513471    -0.470030    -3.159046
H     -0.685787    -0.628521    -4.219336
