22
02/26/2023 18:15, XYZ structure generated by mol3D Class, molSimplify
Cr     0.074971    -0.072314    -0.090794
N     0.369017    1.925277    -0.392520
C     0.522363    3.059853    -0.527254
H     0.667475    4.128007    -0.656031
N     2.072022    -0.405251    -0.350801
C     3.198373    -0.624183    -0.461513
H     4.259008    -0.829589    -0.568532
N     -0.222753    -2.066068    0.239974
C     -0.368204    -3.193517    0.431264
H     -0.505913    -4.255414    0.610244
N     -1.923293    0.251879    0.197134
C     -3.041812    0.450335    0.394616
H     -4.095700    0.636464    0.578656
N     0.390083    0.216793    1.917963
C     0.569752    0.375316    3.045535
H     0.738740    0.524617    4.107183
O     -0.200780    -0.374755    -2.009426
H     -1.051719    -0.786013    -2.257340
C     0.440265    0.187623    -3.240257
H     1.387246    0.622160    -2.931133
H     0.596426    -0.648145    -3.923682
H     -0.229585    0.939110    -3.659579
