28
02/26/2023 18:15, XYZ structure generated by mol3D Class, molSimplify
Cr     -0.000194    -0.070064    -0.227466
O     -0.285634    1.845168    0.086887
H     0.460188    2.407707    -0.200172
C     -1.274750    2.684352    0.832001
H     -1.903363    2.004666    1.400940
H     -0.711361    3.342407    1.494776
H     -1.848712    3.247091    0.094691
O     1.914704    0.341313    -0.502382
H     2.184400    0.433776    -1.435967
C     3.140967    0.084037    0.324065
H     2.932403    0.462818    1.321208
H     3.344096    -0.987088    0.321996
H     3.953041    0.648712    -0.135531
O     0.300250    -1.995337    -0.510857
H     0.660459    -2.245351    -1.383966
C     -0.267177    -3.223956    0.128608
H     -0.683499    -2.917605    1.084189
H     -1.034065    -3.629981    -0.532274
H     0.561104    -3.921032    0.263980
N     -2.021397    -0.405624    0.030405
C     -3.154713    -0.600303    0.121618
H     -4.221388    -0.781188    0.209843
N     0.290170    -0.368659    1.784613
C     0.430098    -0.516813    2.919779
H     0.565836    -0.657518    3.987664
N     -0.280096    0.203322    -2.256121
C     -0.519678    0.394462    -3.368682
H     -0.742689    0.574712    -4.416465
