19
02/26/2023 18:15, XYZ structure generated by mol3D Class, molSimplify
Cr     -0.000032    -0.000000    -0.001588
N     0.000098    2.033152    -0.001699
C     0.000214    3.185919    -0.001814
H     0.000295    4.271642    -0.001907
N     2.033125    -0.000102    -0.001712
C     3.185892    -0.000136    -0.001844
H     4.271615    -0.000179    -0.001948
N     -0.000147    -2.033152    -0.001672
C     -0.000195    -3.185919    -0.001774
H     -0.000253    -4.271642    -0.001845
N     -2.033180    0.000102    -0.001663
C     -3.185947    0.000136    -0.001767
H     -4.271669    0.000176    -0.001835
C     -0.000023    0.000007    2.124514
N     -0.000039    0.000006    3.277254
H     -0.000042    0.000001    4.294767
C     -0.000045    -0.000005    -2.127665
N     -0.000064    -0.000007    -3.280406
H     -0.000063    -0.000007    -4.297919
