28
02/26/2023 18:15, XYZ structure generated by mol3D Class, molSimplify
Cr     -0.163749    -0.045383    -0.090205
C     -0.411288    2.046058    -0.373027
N     -0.524726    3.181686    -0.542471
H     -0.622688    4.184600    -0.689346
C     1.930886    0.247690    -0.329294
N     3.070500    0.398065    -0.429260
H     4.076447    0.531744    -0.514451
O     0.035206    -2.024104    0.258892
H     0.322534    -2.274361    1.157081
C     0.302421    -3.183959    -0.654141
H     -0.301917    -3.026065    -1.543164
H     1.367785    -3.213264    -0.883028
H     -0.018648    -4.081858    -0.124265
O     -2.133340    -0.337816    0.117064
H     -2.324528    -1.260339    0.377312
C     -3.334250    0.510023    0.401722
H     -3.213604    1.425428    -0.173201
H     -4.206236    -0.045895    0.054500
H     -3.383294    0.703712    1.473455
C     0.118367    0.339193    1.992756
N     0.257618    0.560110    3.116692
H     0.381229    0.756742    4.108525
O     -0.423588    -0.405395    -2.027122
H     -1.373182    -0.479590    -2.248577
C     0.342164    -0.126584    -3.281510
H     1.395342    -0.262548    -3.046887
H     0.018951    -0.860448    -4.021122
H     0.126564    0.891062    -3.609036
