19
02/26/2023 18:15, XYZ structure generated by mol3D Class, molSimplify
Cr     0.032397    0.032502    0.027749
N     -0.002339    2.085361    -0.007815
C     -0.007308    3.238250    -0.013263
H     -0.011293    4.323764    -0.017560
N     2.085245    -0.003835    -0.008783
C     3.238127    -0.009771    -0.014805
H     4.323635    -0.014612    -0.019599
C     -0.001684    -2.069902    -0.005449
N     -0.009150    -3.222529    -0.012273
H     -0.013580    -4.240585    -0.016046
C     -2.070024    -0.000178    -0.004643
N     -3.222657    -0.006906    -0.011059
H     -4.240717    -0.010722    -0.014499
N     -0.001950    -0.002826    2.080608
C     -0.006671    -0.008152    3.233499
H     -0.010492    -0.012505    4.319016
C     -0.001817    -0.000821    -2.074589
N     -0.009431    -0.007959    -3.227211
H     -0.014072    -0.012199    -4.245265
