19
02/26/2023 18:15, XYZ structure generated by mol3D Class, molSimplify
Cr     0.000136    0.000225    -0.049897
C     0.000768    2.104120    -0.008350
N     0.000875    3.257479    0.002250
H     0.001456    4.275485    0.009405
C     2.104000    0.001170    -0.006591
N     3.257352    0.001473    0.004733
H     4.275352    0.002221    0.012639
C     0.001103    -2.103649    -0.005191
N     0.001687    -3.256992    0.007125
H     0.001986    -4.274984    0.015868
C     -2.103784    0.001336    -0.006709
N     -3.257132    0.001966    0.004971
H     -4.275129    0.002327    0.013072
C     -0.000079    0.000758    2.039416
N     -0.000509    0.000858    3.192676
H     -0.000747    0.000870    4.210924
N     -0.001902    -0.003196    -2.090803
C     -0.002537    -0.004977    -3.244392
H     -0.003128    -0.006504    -4.330359
