19
02/26/2023 18:15, XYZ structure generated by mol3D Class, molSimplify
Cr     0.036185    0.036182    0.021560
N     -0.002086    2.077562    -0.014357
C     -0.012692    3.230953    -0.021863
H     -0.021115    4.316573    -0.028015
N     2.077578    -0.003578    -0.015977
C     3.230953    -0.014835    -0.024667
H     4.316560    -0.023860    -0.031852
C     -0.003182    -2.052050    -0.014475
N     -0.014166    -3.204980    -0.022820
H     -0.021665    -4.222986    -0.028277
C     -2.052003    -0.001678    -0.013128
N     -3.204947    -0.011908    -0.020654
H     -4.222961    -0.018798    -0.025554
N     0.003190    0.001134    2.065949
C     -0.003853    -0.006662    3.219186
H     -0.009334    -0.012863    4.304792
C     -0.004017    -0.002080    -2.071030
N     -0.014502    -0.011679    -3.223856
H     -0.021724    -0.018073    -4.241855
