34
02/26/2023 18:15, XYZ structure generated by mol3D Class, molSimplify
Cr     -0.014934    0.023506    0.071635
O     -0.221662    1.990645    0.373793
H     -0.448156    2.207021    1.297872
C     -0.379169    3.218283    -0.470691
H     0.234947    3.072797    -1.356500
H     -1.432551    3.339801    -0.721553
H     -0.008298    4.060776    0.114636
O     1.925005    0.277882    0.411147
H     2.150762    1.220799    0.534868
C     3.159265    -0.457325    -0.002290
H     2.938600    -1.519397    0.074497
H     3.424559    -0.169640    -1.020584
H     3.945117    -0.183404    0.703385
O     0.148124    -1.966211    -0.261641
H     0.432593    -2.230062    -1.156096
C     0.293142    -3.148762    0.647857
H     -0.379561    -2.987334    1.486563
H     -0.012771    -4.028041    0.079143
H     1.331823    -3.224680    0.969264
O     -1.987483    -0.277492    -0.125663
H     -2.178887    -1.198819    -0.386707
C     -3.181722    0.574063    -0.413464
H     -3.069537    1.481684    0.175244
H     -3.221388    0.781152    -1.483182
H     -4.059469    0.016417    -0.083374
O     -0.303824    -0.258383    2.019189
H     -1.242532    -0.404132    2.246303
C     0.532729    -0.359960    3.256811
H     1.566960    -0.221842    2.952222
H     0.211864    0.426617    3.941127
H     0.376954    -1.349292    3.688167
C     0.248721    0.329058    -2.044594
N     0.387141    0.478495    -3.180929
H     0.505195    0.612716    -4.184147
