28
02/26/2023 18:15, XYZ structure generated by mol3D Class, molSimplify
Cr     -0.184502    -0.059462    -0.092940
C     -0.421187    2.020542    -0.350565
N     -0.528632    3.158453    -0.511890
H     -0.620833    4.162784    -0.651308
C     1.891501    0.242348    -0.338992
N     3.030552    0.398996    -0.440577
H     4.035367    0.539032    -0.525973
O     0.049480    -2.025008    0.207196
H     0.215620    -2.296359    1.130616
C     0.431098    -3.171034    -0.683075
H     0.109505    -2.908704    -1.687205
H     1.511600    -3.309205    -0.624142
H     -0.104804    -4.048008    -0.316638
O     -2.149160    -0.342415    0.130232
H     -2.365252    -1.281252    0.296675
C     -3.341386    0.490752    0.487168
H     -3.133235    1.502429    0.147162
H     -4.195789    0.072546    -0.046907
H     -3.484882    0.449366    1.567532
C     0.101163    0.312231    1.980822
N     0.246756    0.527998    3.105238
H     0.376502    0.721270    4.096769
O     -0.447485    -0.389228    -2.032728
H     -1.397147    -0.470046    -2.252353
C     0.305023    -0.072080    -3.286698
H     1.361817    -0.200572    -3.064281
H     -0.017095    -0.789719    -4.042612
H     0.074593    0.951111    -3.586290
