31
02/26/2023 18:15, XYZ structure generated by mol3D Class, molSimplify
Cr     0.201452    -0.102161    0.039925
O     0.480472    1.836676    0.396378
H     1.423129    2.062914    0.514548
C     -0.251650    3.090905    0.028556
H     -1.310963    2.896202    0.177195
H     0.088971    3.867925    0.714409
H     -0.024588    3.347337    -1.006882
O     2.192063    -0.460080    0.074066
H     2.713940    -0.364587    -0.745293
C     3.145659    -0.717251    1.206087
H     2.535960    -0.773575    2.102414
H     3.652974    -1.662115    1.006930
H     3.852025    0.112577    1.253209
O     -0.090028    -2.082351    -0.156031
H     0.748657    -2.553413    -0.321393
C     -1.221663    -2.969383    -0.574369
H     -2.120510    -2.576277    -0.105000
H     -1.292676    -2.967707    -1.662447
H     -1.000627    -3.966484    -0.190818
C     -1.892962    0.230826    -0.200014
N     -3.027869    0.404580    -0.317219
H     -4.029474    0.556972    -0.421834
O     -0.002472    -0.405885    1.995126
H     -0.182048    -1.342687    2.206113
C     -0.296741    0.437560    3.193365
H     0.059119    1.439198    2.967697
H     -1.371977    0.421937    3.374840
H     0.255300    0.008168    4.030661
C     0.383353    0.184056    -2.077187
N     0.470461    0.338069    -3.217684
H     0.545462    0.471912    -4.224717
