28
02/26/2023 18:15, XYZ structure generated by mol3D Class, molSimplify
Cr     -0.021250    -0.024478    -0.010072
O     -0.113890    1.963065    0.239467
H     0.258019    2.274160    1.088509
C     -1.165881    2.944393    -0.175925
H     -1.540926    2.610531    -1.139630
H     -1.950728    2.959891    0.580587
H     -0.673030    3.913495    -0.267456
O     1.902300    0.236013    -0.324259
H     2.133113    1.148215    -0.589297
C     3.144619    -0.495377    0.077588
H     2.851286    -1.518528    0.298848
H     3.824635    -0.458222    -0.774874
H     3.567274    0.000034    0.952572
O     0.296819    -1.960590    -0.282334
H     0.580641    -2.182830    -1.190942
C     -0.334053    -3.177782    0.319131
H     -0.579897    -2.928764    1.348275
H     -1.222041    -3.436438    -0.258117
H     0.415973    -3.969111    0.281219
N     -2.048152    -0.313473    0.287619
C     -3.179369    -0.472287    0.446663
H     -4.244207    -0.622423    0.596455
N     0.288587    -0.287622    2.012641
C     0.466333    -0.434096    3.142894
H     0.634021    -0.572750    4.207223
N     -0.350319    0.246721    -2.030864
C     -0.503609    0.388667    -3.165203
H     -0.647378    0.523650    -4.233427
