19
02/26/2023 18:15, XYZ structure generated by mol3D Class, molSimplify
Cr     0.021757    -0.001704    -0.009847
N     0.329784    1.974919    0.290544
C     0.520795    3.100191    0.457240
H     0.700196    4.159667    0.614104
N     2.020172    -0.293786    -0.332801
C     3.147451    -0.458286    -0.513946
H     4.208278    -0.613533    -0.684901
N     -0.314102    -1.974762    -0.305910
C     -0.489883    -3.102053    -0.475658
H     -0.655680    -4.163248    -0.635748
C     -2.016156    0.292762    0.323115
N     -3.142646    0.456154    0.506645
H     -4.137321    0.600638    0.668407
C     0.278090    -0.342175    2.055237
N     0.430371    -0.530106    3.182755
H     0.567952    -0.696528    4.177266
C     -0.309831    0.348648    -2.062926
N     -0.478343    0.538154    -3.187861
H     -0.624975    0.704839    -4.181037
