31
02/26/2023 18:15, XYZ structure generated by mol3D Class, molSimplify
Cr     -0.089698    0.096234    -0.106132
O     -0.302525    2.070197    0.160184
H     -0.414735    2.556040    -0.678891
C     -0.884440    2.906284    1.256898
H     -0.476424    2.532057    2.191962
H     -0.550968    3.930539    1.083560
H     -1.972222    2.833402    1.223457
O     1.828161    0.374117    0.225116
H     2.042031    1.318361    0.364817
C     3.065292    -0.343789    -0.211831
H     2.855281    -1.408140    -0.143686
H     3.309882    -0.037843    -1.230165
H     3.855399    -0.061577    0.485917
O     0.266945    -1.831633    -0.389077
H     0.390672    -2.075606    -1.326574
C     -0.161294    -3.061646    0.350130
H     -0.066819    -2.846686    1.410991
H     -1.187788    -3.303572    0.071657
H     0.526827    -3.857138    0.060283
N     -2.128774    -0.189508    -0.403844
C     -3.251284    -0.343545    -0.623709
H     -4.307969    -0.488650    -0.828759
O     -0.364893    -0.207298    1.814348
H     -1.295989    -0.289846    2.095973
C     0.517023    -0.254309    3.025345
H     1.541898    -0.318607    2.670298
H     0.347109    0.653947    3.604769
H     0.241333    -1.142661    3.595583
N     0.182539    0.404727    -2.149621
C     0.323768    0.583394    -3.281428
H     0.457289    0.751990    -4.346592
