31
02/26/2023 18:15, XYZ structure generated by mol3D Class, molSimplify
Cr     -0.025740    0.009096    -0.006755
O     -0.308673    1.960467    0.244108
H     -0.444082    2.258822    1.163242
C     -0.316123    3.169599    -0.645851
H     -0.390483    2.810719    -1.669105
H     -1.190911    3.764846    -0.381099
H     0.608261    3.723975    -0.478340
O     1.909597    0.263692    0.310325
H     2.161239    1.184943    0.513709
C     3.151658    -0.514608    0.012695
H     2.886841    -1.568112    0.057450
H     3.514061    -0.224039    -0.974441
H     3.874709    -0.271091    0.792518
O     0.213542    -1.956120    -0.259251
H     0.549327    -2.244395    -1.128486
C     0.024033    -3.173188    0.598229
H     -0.628400    -2.883861    1.418498
H     -0.446860    -3.939404    -0.019137
H     1.002655    -3.493680    0.957035
O     -1.958166    -0.253392    -0.324573
H     -2.183303    -1.145990    -0.650066
C     -3.226488    0.457777    0.026498
H     -2.947567    1.438580    0.401054
H     -3.814806    0.539930    -0.888516
H     -3.742894    -0.127911    0.788530
C     -0.317773    -0.238230    2.110300
N     -0.448102    -0.360945    3.251366
H     -0.554954    -0.474731    4.257403
C     0.290432    0.247749    -2.122907
N     0.449022    0.359930    -3.261615
H     0.581478    0.464920    -4.265672
