25
02/26/2023 18:15, XYZ structure generated by mol3D Class, molSimplify
Cr     -0.076610    0.008462    -0.191171
N     -0.347478    2.009139    0.142714
C     -0.440656    3.148093    0.298376
H     -0.531341    4.220024    0.444862
N     1.937618    0.328208    -0.443192
C     3.068255    0.531893    -0.544629
H     4.132129    0.723091    -0.643082
N     0.214083    -1.997456    -0.501726
C     0.407505    -3.125149    -0.648574
H     0.587689    -4.186905    -0.787477
O     -2.010907    -0.271131    -0.011105
H     -2.346499    -1.098289    -0.411951
C     -3.003361    0.185638    1.014350
H     -2.642627    1.136092    1.397904
H     -3.955882    0.308031    0.496460
H     -3.062118    -0.571701    1.796938
N     0.245488    -0.276204    1.816168
C     0.461199    -0.443529    2.936654
H     0.662500    -0.601425    3.991635
O     -0.354156    0.292832    -2.106473
H     -1.201302    0.720254    -2.341573
C     0.411089    -0.016584    -3.354024
H     1.248040    -0.645764    -3.062302
H     -0.263894    -0.547979    -4.026417
H     0.746260    0.930284    -3.779335
