31
02/26/2023 18:15, XYZ structure generated by mol3D Class, molSimplify
Cr     0.108819    -0.090161    0.001962
O     0.176170    1.856081    0.397511
H     1.067401    2.251845    0.344587
C     -0.839259    2.955205    0.397176
H     -1.788506    2.492071    0.654623
H     -0.540370    3.671813    1.163160
H     -0.864552    3.412343    -0.592653
O     2.170059    -0.069434    0.078901
H     2.689978    0.218868    -0.695618
C     3.108191    -0.233110    1.237502
H     2.518335    -0.656711    2.045670
H     3.901594    -0.914956    0.928108
H     3.508073    0.745687    1.505316
O     0.332788    -2.044704    -0.240622
H     1.285242    -2.262916    -0.292691
C     -0.449358    -3.172934    -0.842024
H     -1.496133    -2.986634    -0.613466
H     -0.266040    -3.194761    -1.916930
H     -0.108312    -4.089175    -0.357936
C     -1.978603    -0.205051    -0.269267
N     -3.122646    -0.267680    -0.408676
H     -4.132103    -0.320999    -0.533911
O     -0.085766    -0.437508    1.955945
H     -0.271987    -1.373398    2.164461
C     -0.311838    0.397012    3.172393
H     0.238593    1.322092    3.024311
H     -1.383098    0.570746    3.281578
H     0.086881    -0.158501    4.022562
C     0.258638    0.263730    -2.085651
N     0.327981    0.457033    -3.221667
H     0.384718    0.627963    -4.224006
