19
02/26/2023 18:15, XYZ structure generated by mol3D Class, molSimplify
Cr     0.031891    0.000204    -0.000731
N     0.005063    2.032492    -0.001087
C     0.005998    3.185428    -0.001348
H     0.006954    4.271249    -0.001549
N     2.086307    0.002784    -0.000672
C     3.239204    0.003736    -0.001513
H     4.324715    0.004566    -0.002183
N     0.010818    -2.032228    -0.000867
C     0.015728    -3.185152    -0.001063
H     0.020082    -4.270966    -0.001217
C     -2.071991    -0.002995    -0.001048
N     -3.224648    -0.004609    -0.001223
H     -4.242680    -0.005781    -0.001175
C     -0.013359    0.000422    2.122757
N     -0.026814    0.000619    3.275532
H     -0.036052    0.000821    4.293179
C     -0.013540    -0.000122    -2.124273
N     -0.026568    -0.000290    -3.277056
H     -0.035241    -0.000417    -4.294708
