19
02/26/2023 18:15, XYZ structure generated by mol3D Class, molSimplify
Cr     0.014459    0.003435    0.003798
N     -0.325108    1.982263    -0.303036
C     -0.500039    3.110499    -0.463619
H     -0.665026    4.172972    -0.614782
N     2.023211    0.293852    -0.343823
C     3.150059    0.459326    -0.522141
H     4.210977    0.615091    -0.689862
N     0.319493    -1.985073    0.285344
C     0.510572    -3.108967    0.457534
H     0.690700    -4.167331    0.619806
C     -2.040025    -0.294738    0.319898
N     -3.165819    -0.456412    0.505938
H     -4.159935    -0.599114    0.672378
N     0.290251    0.331034    2.017986
C     0.459366    0.516309    3.143171
H     0.619007    0.690950    4.202396
C     -0.304084    -0.341743    -2.042978
N     -0.465558    -0.528718    -3.168646
H     -0.606380    -0.693847    -4.163245
