22
02/26/2023 18:15, XYZ structure generated by mol3D Class, molSimplify
Cr     -0.046808    0.037946    -0.096491
C     0.251141    2.107084    0.286934
N     0.407156    3.234042    0.476525
H     0.542399    4.229432    0.641990
C     2.027242    -0.322057    0.216089
N     3.149663    -0.522839    0.390601
H     4.140036    -0.702346    0.546209
C     -0.351868    -2.047117    -0.373955
N     -0.506322    -3.179441    -0.530621
H     -0.640583    -4.179316    -0.666956
C     -2.134136    0.402746    -0.269736
N     -3.264865    0.614500    -0.354936
H     -4.262299    0.805396    -0.428071
C     -0.344082    -0.260011    1.971810
N     -0.507577    -0.422106    3.101846
H     -0.652331    -0.564996    4.099331
O     0.208562    0.343688    -2.050034
H     1.071931    0.702855    -2.331320
C     -0.554167    -0.052607    -3.277101
H     -1.499361    -0.471511    -2.939360
H     -0.712594    0.850918    -3.867216
H     0.037050    -0.793656    -3.816625
