28
02/26/2023 18:15, XYZ structure generated by mol3D Class, molSimplify
Cr     -0.021300    0.222172    -0.061744
O     -0.250109    2.168673    0.227371
H     -0.389032    2.666766    -0.601365
C     -0.761389    3.003367    1.365046
H     -0.364545    2.568870    2.278900
H     -0.365484    4.009001    1.215014
H     -1.851936    2.997946    1.342373
O     1.898483    0.484286    0.259656
H     2.097499    1.426776    0.430862
C     3.144170    -0.181932    -0.235950
H     2.986425    -1.253984    -0.152627
H     3.324538    0.125840    -1.266394
H     3.951857    0.138629    0.423798
N     0.285322    -1.787789    -0.391421
C     0.382774    -2.918854    -0.596513
H     0.479086    -3.983054    -0.788754
N     -2.055937    -0.065763    -0.360926
C     -3.174443    -0.241895    -0.582801
H     -4.227787    -0.407114    -0.789100
O     -0.278242    -0.053757    1.860439
H     -1.212896    -0.087488    2.146183
C     0.551688    -0.768726    2.884762
H     1.585866    -0.683896    2.562015
H     0.391900    -0.253341    3.833008
H     0.221518    -1.807379    2.929999
N     0.234199    0.575101    -2.087981
C     0.370495    0.724627    -3.224040
H     0.498900    0.868437    -4.292755
