31
02/26/2023 18:15, XYZ structure generated by mol3D Class, molSimplify
Cr     -0.023348    0.040874    0.106835
O     -0.305554    1.989879    -0.150581
H     -0.220066    2.309890    -1.068812
C     -0.786332    3.121227    0.706623
H     -0.981636    2.711157    1.694142
H     0.006309    3.869824    0.737643
H     -1.697237    3.519575    0.258542
O     1.931157    0.241079    -0.185398
H     2.303087    1.105448    0.077033
C     2.920884    -0.464788    -1.055595
H     2.499167    -1.441597    -1.283322
H     3.073308    0.123825    -1.960991
H     3.842718    -0.563584    -0.480413
O     0.229719    -1.903045    0.405536
H     1.080427    -2.161363    0.808801
C     -0.483168    -3.132417    -0.063838
H     -1.423457    -2.802049    -0.498014
H     0.144055    -3.630298    -0.804334
H     -0.651699    -3.763701    0.809740
O     -1.959369    -0.287667    0.396584
H     -2.182001    -0.731692    1.237230
C     -3.194458    0.346184    -0.153916
H     -2.920647    0.790271    -1.107536
H     -3.927349    -0.449759    -0.293797
H     -3.549905    1.097518    0.551773
N     0.295935    0.340188    2.137006
C     0.519327    0.454637    3.262963
H     0.728331    0.564701    4.323347
N     -0.326440    -0.248353    -1.921599
C     -0.486571    -0.443052    -3.047288
H     -0.638877    -0.625667    -4.107326
