28
02/26/2023 18:15, XYZ structure generated by mol3D Class, molSimplify
Fe     -0.022473    -0.036691    -0.113224
C     0.299293    2.184336    -0.514697
N     0.502108    3.309295    -0.710451
H     0.683014    4.287345    -0.882397
C     2.147600    -0.465749    -0.454581
N     3.280269    -0.673018    -0.597756
H     4.266115    -0.849677    -0.721349
O     -0.509687    -2.063010    0.499055
H     -0.196879    -2.351852    1.372934
C     -0.686051    -3.246599    -0.343592
H     -1.095616    -2.886028    -1.284211
H     0.275871    -3.736501    -0.511537
H     -1.386628    -3.930623    0.139460
O     -2.209434    0.200947    -0.044467
H     -2.587892    -0.653478    0.224081
C     -3.029744    1.276568    0.493627
H     -2.638426    2.204343    0.077561
H     -4.064699    1.141762    0.172561
H     -2.969251    1.297131    1.585025
C     0.311082    0.372135    2.107545
N     0.499628    0.652380    3.217514
H     0.668012    0.899717    4.181665
O     -0.596266    -0.450882    -2.106616
H     -1.495303    -0.121169    -2.279941
C     0.124074    -0.642619    -3.358244
H     1.082816    -1.087508    -3.096148
H     -0.437619    -1.325120    -3.999159
H     0.276052    0.316217    -3.859510
