28
02/26/2023 18:15, XYZ structure generated by mol3D Class, molSimplify
Fe     -0.107177    0.005312    -0.051744
C     -0.360136    1.863420    -0.334240
N     -0.517538    2.999208    -0.516439
H     -0.641754    3.988414    -0.665520
C     1.770498    0.175349    -0.284180
N     2.919561    0.271140    -0.419485
H     3.917326    0.363291    -0.529099
O     -0.071101    -2.048317    0.230753
H     0.163532    -2.299405    1.139935
C     0.494337    -3.061458    -0.670418
H     0.141491    -2.823226    -1.670112
H     1.585147    -3.028429    -0.628499
H     0.123862    -4.039585    -0.358789
O     -2.115622    -0.376569    -0.000137
H     -2.166724    -1.327078    0.212741
C     -3.209573    0.341311    0.648835
H     -3.217429    1.347220    0.231827
H     -4.147121    -0.163307    0.409592
H     -3.053706    0.375195    1.729437
C     0.073659    0.294141    1.822172
N     0.184909    0.475746    2.964001
H     0.292208    0.656910    3.950182
O     -0.417744    -0.423405    -1.999802
H     -1.388715    -0.447699    -2.094351
C     0.173737    0.181595    -3.189088
H     1.250338    0.032475    -3.120273
H     -0.210755    -0.339159    -4.067889
H     -0.062705    1.247238    -3.243161
