31
02/26/2023 18:15, XYZ structure generated by mol3D Class, molSimplify
Fe     -0.223925    0.074489    -0.215654
O     -0.664419    2.038795    0.126985
H     -0.768138    2.546883    -0.694346
C     -0.115373    2.930249    1.147356
H     -0.194080    2.410949    2.100944
H     0.927178    3.174812    0.928271
H     -0.719405    3.839179    1.176725
O     1.825487    0.214374    -0.104275
H     2.199795    0.893622    -0.689025
C     2.645042    0.157533    1.106112
H     2.332050    -0.729234    1.654265
H     3.692525    0.058286    0.815219
H     2.496713    1.054774    1.711360
O     0.060575    -1.882021    -0.645155
H     1.009107    -2.027717    -0.808006
C     -0.479354    -3.040229    0.060888
H     -1.546181    -2.866270    0.187821
H     -0.318549    -3.924602    -0.558614
H     0.004784    -3.163068    1.033377
O     -2.221359    -0.276787    -0.319495
H     -2.681423    0.468694    0.105559
C     -2.962160    -0.636389    -1.526382
H     -2.443304    -1.483604    -1.970932
H     -3.972912    -0.929483    -1.236248
H     -2.993018    0.203651    -2.225002
C     -0.454897    -0.298168    1.709637
N     -0.661297    -0.536889    2.827228
H     -0.856308    -0.755134    3.792518
C     -0.037868    0.386914    -2.159220
N     0.099227    0.525588    -3.304046
H     0.207798    0.614046    -4.303492
