28
02/26/2023 18:15, XYZ structure generated by mol3D Class, molSimplify
Fe     0.043421    -0.278758    -0.038544
C     -0.339735    1.914970    0.294386
N     -0.485574    3.033956    0.567200
H     -0.609168    4.006040    0.807955
C     2.257515    0.035876    0.322392
N     3.397664    0.210916    0.452621
H     4.388309    0.363675    0.566583
C     0.387713    -2.503440    -0.403102
N     0.612586    -3.638766    -0.492755
H     0.816548    -4.624984    -0.564119
O     -2.129926    -0.725944    -0.074857
H     -2.348216    -1.617150    -0.393555
C     -3.254585    0.156293    -0.365671
H     -3.028580    1.111220    0.106409
H     -3.365819    0.285879    -1.444904
H     -4.167007    -0.259701    0.066733
O     -0.328185    -0.626967    1.991967
H     -1.278935    -0.791877    2.114652
C     0.401602    -0.786776    3.241666
H     1.433918    -0.504746    3.039935
H     -0.022424    -0.123842    3.998721
H     0.351177    -1.827589    3.569182
O     0.294524    0.009446    -2.122987
H     0.486346    -0.793515    -2.634417
C     0.491808    1.181621    -2.971091
H     0.185685    2.047422    -2.386801
H     1.544189    1.265909    -3.251136
H     -0.138669    1.093382    -3.858028
