34
02/26/2023 18:15, XYZ structure generated by mol3D Class, molSimplify
Fe     -0.110145    0.095106    -0.046749
O     -0.424843    2.181575    -0.139357
H     -0.609825    2.617215    -0.988063
C     -0.464626    3.182610    0.924584
H     -0.314234    2.634572    1.852507
H     0.334122    3.913355    0.778708
H     -1.438058    3.677692    0.932551
O     1.952589    0.346147    -0.241779
H     2.268809    1.258847    -0.354860
C     2.991043    -0.591073    -0.667986
H     2.578422    -1.590626    -0.539104
H     3.243991    -0.417553    -1.716221
H     3.870646    -0.464328    -0.034026
O     -0.049309    -2.037398    0.433252
H     0.196425    -2.095407    1.372648
C     0.078608    -3.330124    -0.223724
H     -0.257645    -3.188391    -1.250418
H     1.119232    -3.663750    -0.212931
H     -0.556868    -4.064858    0.275941
O     -2.146483    -0.239003    0.484665
H     -2.264309    -1.200548    0.581131
C     -3.412771    0.378235    0.104060
H     -3.209695    1.436049    -0.053389
H     -3.794016    -0.072694    -0.815544
H     -4.132773    0.254432    0.915501
O     0.083861    0.047784    2.224484
H     -0.778952    0.091320    2.669363
C     1.150754    0.380380    3.157838
H     2.070499    0.358285    2.575476
H     0.999702    1.377920    3.578412
H     1.193504    -0.362770    3.957272
C     -0.449380    -0.185439    -2.239071
N     -0.615443    -0.348406    -3.376079
H     -0.759386    -0.490638    -4.365265
