28
02/26/2023 18:15, XYZ structure generated by mol3D Class, molSimplify
Fe     0.035486    -0.018005    -0.212734
O     -0.249213    1.963511    0.016213
H     0.590910    2.318780    0.355604
C     -1.361860    2.667770    0.635962
H     -2.257271    2.397216    0.079665
H     -1.463549    2.391544    1.688571
H     -1.186553    3.740770    0.538633
O     1.962099    0.498627    0.143675
H     2.420919    0.703613    -0.689480
C     2.886656    -0.267551    0.985963
H     2.478568    -0.253845    1.993961
H     2.969401    -1.291214    0.618226
H     3.854935    0.235439    0.975464
O     0.576927    -1.960389    -0.454084
H     0.933133    -2.108864    -1.346575
C     -0.247664    -3.117458    -0.113406
H     -0.591443    -2.966070    0.907460
H     -1.097058    -3.196557    -0.795273
H     0.374976    -4.012499    -0.165139
N     -1.884440    -0.350312    -0.559975
C     -3.002285    -0.527838    -0.774998
H     -4.048417    -0.691940    -0.976234
N     -0.259295    -0.323895    1.720096
C     -0.460326    -0.485355    2.842985
H     -0.644704    -0.637326    3.894298
N     0.343049    0.306790    -2.147585
C     0.460240    0.552435    -3.267624
H     0.566226    0.786620    -4.315070
