31
02/26/2023 18:15, XYZ structure generated by mol3D Class, molSimplify
Fe     0.006972    0.022182    -0.018552
O     0.263985    1.959798    0.476453
H     1.184415    2.059341    0.780035
C     -0.103881    3.138982    -0.297804
H     -1.148582    3.017562    -0.576941
H     0.007024    4.019630    0.337715
H     0.520173    3.230056    -1.190290
O     1.991031    -0.079348    0.358067
H     2.491372    0.146643    -0.445724
C     2.639298    -1.266886    0.932639
H     2.179027    -1.442392    1.902070
H     2.487142    -2.122952    0.274840
H     3.700815    -1.046761    1.058213
O     -0.111159    -1.976708    -0.376104
H     -0.300654    -2.154563    -1.311445
C     -0.772587    -2.990876    0.437298
H     -0.334057    -2.933575    1.431180
H     -1.850791    -2.810742    0.474941
H     -0.569899    -3.971702    0.003378
N     -1.939921    0.292284    -0.283293
C     -3.068605    0.468153    -0.441397
H     -4.123648    0.635095    -0.589612
O     -0.260933    -0.403069    1.930762
H     -1.199702    -0.602525    2.089885
C     0.181881    0.440341    3.046045
H     1.259668    0.562156    2.949247
H     -0.317872    1.409514    3.018567
H     -0.039668    -0.087602    3.975416
N     0.344766    0.317506    -1.954630
C     0.520584    0.481698    -3.083002
H     0.683492    0.638017    -4.137873
