19
02/26/2023 18:15, XYZ structure generated by mol3D Class, molSimplify
Fe     -0.000081    -0.000075    0.003425
C     -0.000035    1.942224    0.003855
N     -0.000019    3.101312    0.004230
H     0.000016    4.109092    0.004615
C     1.942220    -0.000123    0.003890
N     3.101307    -0.000142    0.004299
H     4.109088    -0.000181    0.004718
C     -0.000125    -1.942363    0.004020
N     -0.000142    -3.101450    0.004407
H     -0.000180    -4.109231    0.004748
C     -1.942369    -0.000025    0.004006
N     -3.101457    -0.000006    0.004378
H     -4.109237    0.000032    0.004705
N     0.000128    0.000139    1.969130
C     0.000369    0.000354    3.119687
H     0.000594    0.000577    4.197130
N     -0.000038    -0.000056    -1.961929
C     -0.000030    -0.000040    -3.112488
H     -0.000009    -0.000036    -4.189929
