25
02/26/2023 18:15, XYZ structure generated by mol3D Class, molSimplify
Fe     0.000401    0.000695    -0.004705
N     -0.321513    1.934510    0.268222
C     -0.503295    3.066932    0.367941
H     -0.674849    4.126735    0.461249
N     1.765903    0.165376    0.872106
C     2.791436    0.225148    1.393164
H     3.749825    0.279846    1.883711
N     0.322408    -1.933030    -0.277619
C     0.504514    -3.065375    -0.377651
H     0.676423    -4.125086    -0.471417
N     -1.765054    -0.163695    -0.881527
C     -2.790894    -0.222913    -1.402042
H     -3.749423    -0.277310    -1.892381
O     -0.828624    -0.482775    1.779636
H     -1.710855    -0.872087    1.662644
C     -0.844338    0.336184    2.986265
H     0.168082    0.710375    3.122180
H     -1.547495    1.166579    2.885581
H     -1.118564    -0.300153    3.829781
O     0.830134    0.483873    -1.788877
H     1.713827    0.869752    -1.671539
C     0.842089    -0.332937    -2.996964
H     -0.172195    -0.701518    -3.134262
H     1.120228    0.303383    -3.839212
H     1.540705    -1.167280    -2.897366
