19
02/26/2023 18:15, XYZ structure generated by mol3D Class, molSimplify
Fe     -0.000119    -0.000107    0.037403
C     -0.000122    1.931198    0.025183
N     -0.000154    3.090272    0.011856
H     -0.000195    4.098043    0.000253
C     1.931186    -0.000231    0.025163
N     3.090259    -0.000325    0.011825
H     4.098030    -0.000432    0.000215
C     -0.000222    -1.931369    0.025233
N     -0.000294    -3.090444    0.011983
H     -0.000379    -4.098216    0.000402
C     -1.931382    -0.000089    0.025255
N     -3.090457    -0.000098    0.012015
H     -4.098228    -0.000117    0.000442
C     0.000149    0.000122    1.931699
N     0.000356    0.000306    3.091347
H     0.000544    0.000470    4.098842
N     0.000123    0.000175    -1.966867
C     0.000267    0.000339    -3.116974
H     0.000403    0.000491    -4.194626
