34
02/26/2023 18:15, XYZ structure generated by mol3D Class, molSimplify
Fe     0.075264    -0.044476    -0.205394
O     0.080103    2.093328    -0.350419
H     0.260018    2.525709    -1.202650
C     -0.382828    3.097030    0.605827
H     -0.513013    2.572692    1.550934
H     0.370643    3.880697    0.710112
H     -1.331889    3.523106    0.272421
O     2.094731    0.112142    0.251245
H     2.460710    1.013075    0.264731
C     3.172421    -0.873455    0.225935
H     2.683920    -1.846354    0.235167
H     3.769028    -0.751528    -0.680587
H     3.792714    -0.754814    1.116177
O     0.058624    -2.261464    -0.107105
H     0.369250    -2.788184    -0.862390
C     -0.137619    -3.144911    1.040149
H     -0.459877    -2.498328    1.852937
H     -0.905236    -3.887520    0.810079
H     0.800747    -3.639666    1.302173
O     -1.974445    -0.312404    -0.426661
H     -2.186907    -1.260380    -0.490446
C     -2.973023    0.470559    -1.151569
H     -2.645617    1.508602    -1.107642
H     -3.031384    0.137503    -2.190372
H     -3.940548    0.361827    -0.658195
O     -0.416245    -0.004929    1.986846
H     -1.362305    0.068239    2.192904
C     0.374878    0.146276    3.197282
H     1.414156    0.056481    2.886804
H     0.203659    1.126586    3.649717
H     0.128006    -0.645215    3.908725
N     0.430539    -0.298530    -2.404122
C     0.625091    -0.428005    -3.533796
H     0.807497    -0.548364    -4.590058
