19
02/26/2023 18:15, XYZ structure generated by mol3D Class, molSimplify
Fe     -0.037599    0.000297    -0.032830
N     -0.015240    1.963789    -0.010573
C     0.010611    3.113735    0.015132
H     0.033430    4.190605    0.037839
N     1.965892    -0.000180    -0.014158
C     3.116061    -0.000509    0.007238
H     4.193226    -0.000779    0.025852
N     -0.015674    -1.963371    -0.010765
C     0.010008    -3.113320    0.014888
H     0.032658    -4.190194    0.037520
C     -1.956535    0.000208    -0.023715
N     -3.115349    0.000056    -0.010335
H     -4.122880    0.000010    0.001516
N     -0.019923    0.000009    1.970596
C     0.000905    -0.000180    3.120775
H     0.019039    -0.000325    4.197949
C     -0.027573    0.000124    -1.951786
N     -0.013642    -0.000064    -3.110594
H     -0.001314    -0.000146    -4.118119
