19
02/26/2023 18:15, XYZ structure generated by mol3D Class, molSimplify
Fe     -0.000234    0.001878    0.000461
N     0.338790    2.157373    0.371738
C     0.511439    3.281170    0.559446
H     0.673090    4.331813    0.734933
N     2.157869    -0.353301    0.319098
C     3.280841    -0.539016    0.496116
H     4.331203    -0.712965    0.662813
N     -0.313158    -2.164019    -0.332100
C     -0.478655    -3.290633    -0.509021
H     -0.633596    -4.343870    -0.674708
C     -2.203002    0.368992    -0.299500
N     -3.331851    0.559950    -0.481042
H     -4.314053    0.726787    -0.638444
N     -0.355421    -0.317600    2.159387
C     -0.527484    -0.486148    3.285846
H     -0.687500    -0.643960    4.339754
C     0.377430    0.315267    -2.196745
N     0.542605    0.481689    -3.332021
H     0.687776    0.626366    -4.319582
