19
02/26/2023 18:15, XYZ structure generated by mol3D Class, molSimplify
Fe     -0.000223    -0.007903    -0.009649
N     -0.334455    2.158150    0.335490
C     -0.528181    3.281350    0.503166
H     -0.710111    4.331834    0.660244
N     2.159372    0.335698    0.363358
C     3.285638    0.494817    0.546215
H     4.339253    0.642817    0.717410
C     0.375277    -2.214925    -0.294301
N     0.589314    -3.344959    -0.440420
H     0.776661    -4.327935    -0.567013
C     -2.212593    -0.321553    -0.342335
N     -3.350974    -0.460076    -0.512730
H     -4.341337    -0.580450    -0.661232
N     -0.312752    -0.348385    2.163658
C     -0.479717    -0.528197    3.289457
H     -0.635650    -0.696552    4.342087
C     0.321913    0.366594    -2.192002
N     0.485872    0.555529    -3.324697
H     0.628918    0.720505    -4.309123
