22
02/26/2023 18:15, XYZ structure generated by mol3D Class, molSimplify
Fe     0.060746    -0.017439    -0.054510
N     0.378302    2.140311    -0.373449
C     0.544242    3.267245    -0.545020
H     0.699633    4.321659    -0.705641
N     2.214208    -0.384132    -0.356072
C     3.343595    -0.588229    -0.459722
H     4.399666    -0.778933    -0.558107
N     -0.254079    -2.169989    0.307829
C     -0.407528    -3.294913    0.502678
H     -0.551157    -4.347402    0.685292
N     -2.100578    0.332620    0.247746
C     -3.215723    0.530292    0.461327
H     -4.258499    0.714969    0.661841
N     0.404737    0.310394    2.110393
C     0.585052    0.470370    3.236973
H     0.753268    0.619712    4.290598
O     -0.288140    -0.330572    -2.087601
H     -1.193093    -0.581468    -2.333933
C     0.486671    -0.086115    -3.297172
H     1.448393    0.311927    -2.978998
H     0.626441    -1.024069    -3.839105
H     -0.030144    0.645941    -3.921766
