19
02/26/2023 18:15, XYZ structure generated by mol3D Class, molSimplify
Fe     0.000109    0.000119    -0.036166
N     0.000289    1.967360    -0.016189
C     0.000455    3.117522    0.009031
H     0.000605    4.194579    0.030963
N     1.967349    0.000070    -0.016251
C     3.117511    0.000099    0.008933
H     4.194570    0.000132    0.030833
N     0.000024    -1.967191    -0.016468
C     0.000026    -3.117355    0.008635
H     0.000031    -4.194415    0.030436
N     -1.967203    0.000266    -0.016406
C     -3.117365    0.000403    0.008733
H     -4.194425    0.000522    0.030564
N     -0.000184    -0.000239    1.971567
C     -0.000427    -0.000517    3.121939
H     -0.000626    -0.000745    4.199154
C     -0.000107    -0.000030    -1.965569
N     -0.000351    -0.000231    -3.124164
H     -0.000504    -0.000353    -4.131781
