19
02/26/2023 18:15, XYZ structure generated by mol3D Class, molSimplify
Fe     -0.005760    -0.004000    0.025118
C     0.307166    2.199045    0.350452
N     0.466516    3.335304    0.521613
H     0.603811    4.323062    0.670774
C     2.224223    -0.368035    0.331038
N     3.356412    -0.555044    0.492889
H     4.342141    -0.718253    0.633472
C     -0.324992    -2.192303    -0.379023
N     -0.484682    -3.323579    -0.580278
H     -0.623755    -4.306760    -0.755704
N     -2.175138    0.345998    -0.309980
C     -3.299446    0.530422    -0.480582
H     -4.351450    0.702839    -0.640455
C     -0.378385    -0.320127    2.213541
N     -0.566192    -0.484691    3.346501
H     -0.729317    -0.627534    4.331290
N     0.349741    0.323492    -2.155011
C     0.531346    0.491558    -3.280502
H     0.701026    0.648833    -4.332728
