31
02/26/2023 18:15, XYZ structure generated by mol3D Class, molSimplify
Fe     0.031101    -0.059114    -0.000531
O     0.288333    1.954330    0.420636
H     1.234915    2.164908    0.503228
C     -0.479514    3.170533    0.161148
H     -1.531742    2.888195    0.173922
H     -0.282127    3.892014    0.955933
H     -0.208884    3.585119    -0.812441
O     2.295457    -0.063598    0.203061
H     2.861254    0.053066    -0.578099
C     3.136605    -0.236976    1.386557
H     2.446253    -0.416976    2.207313
H     3.801905    -1.093226    1.250789
H     3.722639    0.667064    1.569927
O     0.348407    -2.147768    -0.114479
H     1.307719    -2.313441    -0.127702
C     -0.349128    -3.237559    -0.794384
H     -1.413728    -3.011455    -0.743847
H     -0.025843    -3.302534    -1.835911
H     -0.145639    -4.173136    -0.270103
C     -2.188195    -0.099106    -0.144091
N     -3.346082    -0.120187    -0.211811
H     -4.353736    -0.136877    -0.272693
O     -0.019401    -0.507844    2.164151
H     -0.146412    -1.460518    2.306205
C     -0.630651    0.237226    3.252098
H     -0.331793    1.275771    3.117878
H     -1.720162    0.150087    3.216177
H     -0.252678    -0.132582    4.207544
C     0.306236    0.249927    -2.223316
N     0.403926    0.419921    -3.367340
H     0.477217    0.568606    -4.363068
