19
02/26/2023 18:15, XYZ structure generated by mol3D Class, molSimplify
Fe     -0.015315    0.000965    0.005310
N     0.325582    2.162538    0.355760
C     0.492038    3.288288    0.535813
H     0.647420    4.341627    0.704162
N     2.159892    -0.349235    0.332729
C     3.283902    -0.539031    0.500657
H     4.334817    -0.716924    0.657661
N     -0.339775    -2.163394    -0.341249
C     -0.505947    -3.289335    -0.520480
H     -0.660301    -4.343013    -0.687679
C     -2.205974    0.368730    -0.311901
N     -3.336985    0.569451    -0.473468
H     -4.320032    0.744739    -0.613614
C     -0.344127    -0.318597    2.203789
N     -0.518245    -0.483245    3.338715
H     -0.670116    -0.626575    4.325138
C     0.384878    0.301240    -2.182098
N     0.584958    0.457708    -3.313869
H     0.759228    0.593789    -4.297626
