28
02/26/2023 18:15, XYZ structure generated by mol3D Class, molSimplify
Fe     -0.040552    -0.036338    -0.148445
O     -0.180311    2.063731    -0.679061
H     -0.756211    2.263851    -1.435571
C     -0.257673    3.176189    0.262846
H     0.496250    2.989219    1.026021
H     -0.030640    4.108349    -0.258361
H     -1.248632    3.221496    0.720334
O     1.939127    0.543108    0.250856
H     2.174177    1.358193    -0.225402
C     3.148388    -0.230169    0.514519
H     2.844167    -1.076332    1.127664
H     3.585678    -0.578548    -0.424043
H     3.859953    0.389745    1.063337
N     0.332185    -2.192956    0.202902
C     0.475402    -3.324258    0.371451
H     0.610997    -4.381845    0.529470
N     -2.224209    -0.411996    -0.501248
C     -3.329478    -0.625495    -0.750549
H     -4.363056    -0.825802    -0.983425
O     -0.663869    0.315805    1.832426
H     -1.557148    0.022574    2.077605
C     0.117802    0.532864    3.048026
H     1.082324    0.915723    2.722946
H     -0.390246    1.268207    3.674779
H     0.244086    -0.410440    3.584174
N     0.321993    -0.383629    -2.323388
C     0.526509    -0.589757    -3.438560
H     0.717238    -0.782170    -4.482226
