22
02/26/2023 18:15, XYZ structure generated by mol3D Class, molSimplify
Fe     0.086441    -0.090203    -0.048111
N     0.367604    1.843643    -0.356177
C     0.537323    2.973934    -0.492636
H     0.696443    4.031799    -0.621727
N     2.016787    -0.419646    -0.314766
C     3.139482    -0.639578    -0.440217
H     4.190091    -0.846615    -0.559683
N     -0.194330    -2.026287    0.249138
C     -0.340239    -3.156823    0.406109
H     -0.475655    -4.215617    0.552013
N     -1.851396    0.222274    0.208742
C     -2.972143    0.407687    0.397101
H     -4.020878    0.581380    0.575131
N     0.389744    0.185653    1.894245
C     0.570696    0.342475    3.019991
H     0.740191    0.488933    4.073792
O     -0.198709    -0.450425    -2.001843
H     -1.138770    -0.598950    -2.197696
C     0.408174    0.242138    -3.133328
H     1.480988    0.268579    -2.952814
H     0.204170    -0.337281    -4.035606
H     0.009994    1.255113    -3.228069
