19
02/26/2023 18:15, XYZ structure generated by mol3D Class, molSimplify
Fe     0.000054    0.000088    0.008617
N     -0.000258    2.218007    0.011255
C     -0.000487    3.370004    0.012928
H     -0.000723    4.447947    0.014323
N     2.230972    -0.000326    0.010906
C     3.383361    -0.000650    0.012735
H     4.460688    -0.000970    0.014326
N     0.000314    -2.217876    0.010454
C     0.000561    -3.369873    0.012557
H     0.000760    -4.447812    0.014472
N     -2.230907    0.000394    0.010890
C     -3.383295    0.000616    0.012842
H     -4.460623    0.000838    0.014583
C     -0.000149    0.000058    2.240971
N     -0.000356    -0.000713    3.400597
H     -0.000541    -0.001517    4.408925
C     0.000035    -0.000066    -2.222331
N     0.000040    0.000579    -3.381931
H     0.000097    0.001264    -4.390266
