19
02/26/2023 18:15, XYZ structure generated by mol3D Class, molSimplify
Fe     -0.004399    -0.006965    0.031149
C     0.319772    2.225658    0.378741
N     0.498622    3.355181    0.568455
H     0.653942    4.338212    0.733727
C     2.206326    -0.367136    0.313138
N     3.343492    -0.534375    0.469655
H     4.331996    -0.680773    0.605738
C     -0.322092    -2.232245    -0.361919
N     -0.499208    -3.358996    -0.568859
H     -0.652909    -4.339623    -0.749343
C     -2.204150    0.358693    -0.321772
N     -3.336987    0.526986    -0.506161
H     -4.321780    0.674269    -0.666022
C     -0.359596    -0.328655    2.225634
N     -0.538833    -0.487048    3.360907
H     -0.695052    -0.624394    4.347684
N     0.349290    0.329954    -2.151841
C     0.530794    0.497259    -3.277589
H     0.700120    0.653463    -4.330102
