19
02/26/2023 18:15, XYZ structure generated by mol3D Class, molSimplify
Fe     -0.009388    -0.003765    -0.001403
N     -0.345068    1.886174    0.296963
C     -0.520940    3.011524    0.469295
H     -0.685688    4.073045    0.631585
N     1.930799    0.271179    0.329871
C     3.056426    0.436993    0.506370
H     4.117477    0.592873    0.673589
N     0.294901    -1.902580    -0.281787
C     0.486472    -3.027752    -0.438067
H     0.668523    -4.088513    -0.586346
C     -1.911118    -0.250624    -0.364138
N     -3.034467    -0.401381    -0.564882
H     -4.028533    -0.535091    -0.741607
C     -0.242621    -0.313414    1.947048
N     -0.369970    -0.490977    3.077645
H     -0.480473    -0.648435    4.077106
C     0.223527    0.293332    -1.949583
N     0.381144    0.469811    -3.076533
H     0.524846    0.627239    -4.071874
