19
02/26/2023 18:15, XYZ structure generated by mol3D Class, molSimplify
Fe     -0.004927    -0.000024    -0.012601
N     -0.007058    1.941432    -0.014794
C     0.011190    3.092909    0.003554
H     0.028662    4.179027    0.020988
N     1.976573    -0.000326    0.009180
C     3.127530    -0.000427    0.027148
H     4.212531    -0.000495    0.044561
N     -0.006898    -1.941474    -0.014942
C     0.011314    -3.092951    0.003465
H     0.028687    -4.179069    0.021027
C     -1.961232    0.000680    -0.071891
N     -3.111991    0.001055    -0.082946
H     -4.130410    0.001341    -0.089393
N     0.018204    0.000223    1.968873
C     0.036747    0.000262    3.119823
H     0.054706    0.000281    4.204815
C     -0.065589    -0.000622    -1.968851
N     -0.077429    -0.000922    -3.119601
H     -0.084512    -0.001136    -4.138016
