19
02/26/2023 18:15, XYZ structure generated by mol3D Class, molSimplify
Fe     0.034014    0.008756    0.009491
N     -0.322146    2.051927    -0.309809
C     -0.508837    3.178989    -0.478043
H     -0.684024    4.238921    -0.635679
N     2.096897    0.304957    -0.355456
C     3.224113    0.468195    -0.544572
H     4.284045    0.621807    -0.721450
N     0.343616    -2.047124    0.294913
C     0.523529    -3.175966    0.458510
H     0.693864    -4.237135    0.613105
C     -2.120808    -0.303147    0.330211
N     -3.249342    -0.466051    0.504438
H     -4.244456    -0.609906    0.660175
N     0.307112    0.343069    2.080407
C     0.464079    0.527111    3.209359
H     0.612572    0.700347    4.270624
C     -0.303695    -0.353934    -2.134872
N     -0.473398    -0.542481    -3.260098
H     -0.620979    -0.708756    -4.252954
