19
02/26/2023 18:15, XYZ structure generated by mol3D Class, molSimplify
Fe     0.000049    0.000035    -0.012250
C     0.000049    1.990088    -0.012243
N     0.000045    3.141599    -0.012125
H     0.000040    4.160424    -0.012022
C     1.990099    -0.000002    -0.012281
N     3.141610    -0.000025    -0.012252
H     4.160437    -0.000044    -0.012247
C     0.000041    -1.990033    -0.012310
N     0.000053    -3.141544    -0.012288
H     0.000070    -4.160370    -0.012281
C     -1.990019    0.000064    -0.012315
N     -3.141530    0.000092    -0.012245
H     -4.160357    0.000122    -0.012181
N     -0.000159    0.000042    1.945007
C     -0.000335    0.000076    3.095718
H     -0.000481    0.000117    4.180791
N     0.000083    -0.000102    -1.969471
C     0.000131    -0.000218    -3.120180
H     0.000176    -0.000318    -4.205253
