19
02/26/2023 18:15, XYZ structure generated by mol3D Class, molSimplify
Fe     0.030756    0.043644    0.011220
N     -0.335835    2.101515    -0.314401
C     -0.525729    3.227815    -0.484027
H     -0.703491    4.287024    -0.642796
N     2.098297    0.315598    -0.348343
C     3.226553    0.473647    -0.536471
H     4.287302    0.623236    -0.712843
C     0.353530    -2.116114    0.295506
N     0.529478    -3.245736    0.449548
H     0.687242    -4.241523    0.587373
C     -2.119322    -0.298531    0.342725
N     -3.246053    -0.470073    0.521067
H     -4.239969    -0.619098    0.680512
N     0.312136    0.349054    2.085553
C     0.471907    0.525165    3.215531
H     0.622866    0.691863    4.277671
C     -0.302908    -0.344367    -2.130789
N     -0.471365    -0.538473    -3.255364
H     -0.619024    -0.708413    -4.247728
