31
02/26/2023 18:15, XYZ structure generated by mol3D Class, molSimplify
Fe     0.018502    -0.047470    0.057175
O     -0.038766    1.890444    -0.174191
H     0.387069    2.185682    -1.003510
C     -1.214017    2.782159    0.079177
H     -1.649663    2.456882    1.019925
H     -0.813684    3.794669    0.163758
H     -1.915257    2.696822    -0.751025
O     1.903678    0.177250    0.423142
H     2.094801    1.090991    0.715723
C     3.109552    -0.340942    -0.294628
H     2.883089    -1.355262    -0.618575
H     3.334844    0.303388    -1.145150
H     3.922468    -0.342398    0.434238
O     0.235188    -1.944920    0.439479
H     1.163898    -2.165455    0.645701
C     -0.450497    -3.176311    -0.059190
H     -0.142724    -3.371366    -1.086965
H     -0.150200    -3.985523    0.609518
H     -1.518927    -2.998760    0.020511
N     -1.934251    -0.333293    -0.242092
C     -3.066354    -0.447773    -0.423882
H     -4.133455    -0.559960    -0.592513
O     -0.439321    0.296711    1.889849
H     -0.885818    -0.481740    2.280320
C     0.401267    0.941845    2.936784
H     0.683487    1.921248    2.553697
H     -0.240093    1.058710    3.813551
H     1.262387    0.309746    3.157325
N     0.345420    -0.326887    -1.900494
C     0.461552    -0.497009    -3.035003
H     0.575470    -0.656402    -4.103889
