19
02/26/2023 18:15, XYZ structure generated by mol3D Class, molSimplify
Fe     -0.003135    -0.000080    -0.006335
C     0.024063    1.983234    -0.043623
N     0.020069    3.134539    -0.074065
H     0.012825    4.152145    -0.103099
C     1.947339    0.077918    0.052674
N     3.098052    0.114144    0.065625
H     4.116290    0.145593    0.074939
C     -0.043004    -1.983296    0.018831
N     -0.074783    -3.134565    0.013752
H     -0.104949    -4.152135    0.005686
N     -1.979499    0.011520    0.017669
C     -3.130957    0.032044    0.022701
H     -4.216636    0.049897    0.025657
C     0.058981    -0.080629    1.943907
N     0.073713    -0.118425    3.094551
H     0.084514    -0.151276    4.112734
N     0.017628    -0.008818    -1.982688
C     0.020744    -0.027644    -3.134184
H     0.022012    -0.043935    -4.219895
