31
02/26/2023 18:15, XYZ structure generated by mol3D Class, molSimplify
Fe     -0.031123    -0.007185    -0.033595
O     -0.190799    2.001920    -0.380869
H     -0.003238    2.255526    -1.306165
C     -0.930096    3.130508    0.254583
H     -1.161895    2.823918    1.270637
H     -0.271671    4.001431    0.246016
H     -1.838264    3.316938    -0.321963
O     1.919537    0.298921    0.328996
H     2.151331    1.248704    0.369317
C     3.183139    -0.493500    0.275901
H     2.901320    -1.541507    0.220626
H     3.738449    -0.183290    -0.612004
H     3.746119    -0.278317    1.186689
O     0.287732    -1.989122    0.228151
H     0.424847    -2.252738    1.159541
C     -0.027845    -3.221497    -0.551455
H     0.806827    -3.913883    -0.427917
H     -0.954801    -3.644654    -0.159775
H     -0.135401    -2.921619    -1.590391
N     -2.158109    -0.343929    -0.400691
C     -3.268264    -0.525518    -0.659280
H     -4.312601    -0.695667    -0.899799
O     -0.601739    0.291382    1.887899
H     -1.544838    0.139846    2.097422
C     0.130428    0.577993    3.156438
H     1.175353    0.696535    2.884110
H     -0.277234    1.495998    3.583642
H     -0.012449    -0.266875    3.833293
N     0.296702    -0.255653    -2.167047
C     0.485419    -0.377071    -3.299436
H     0.662805    -0.492518    -4.364110
