34
02/26/2023 18:15, XYZ structure generated by mol3D Class, molSimplify
Fe     -0.196309    -0.010217    0.320241
O     -0.425445    1.986345    -0.025087
H     -0.776139    2.483545    0.738379
C     -0.141991    2.957850    -1.124268
H     0.428418    2.421290    -1.877459
H     -1.094359    3.312266    -1.521977
H     0.439086    3.780562    -0.703453
O     1.788825    0.265332    0.651573
H     2.050291    1.204754    0.712300
C     3.021521    -0.542290    0.432563
H     2.730220    -1.588619    0.481375
H     3.431260    -0.288381    -0.546957
H     3.725066    -0.296674    1.230049
O     0.011097    -2.021989    0.616549
H     0.195266    -2.262480    1.545189
C     -0.007096    -3.275490    -0.194768
H     -0.402204    -3.013581    -1.173229
H     1.013683    -3.654394    -0.267834
H     -0.656313    -3.992566    0.311280
O     -2.205793    -0.299560    0.116673
H     -2.461705    -1.239066    0.198252
C     -3.335913    0.428153    -0.529447
H     -3.078569    1.484380    -0.525191
H     -3.454001    0.051605    -1.547243
H     -4.231445    0.243059    0.066659
O     -0.533126    0.289627    2.296824
H     -1.481849    0.246149    2.529543
C     0.248065    0.555735    3.542492
H     1.300416    0.527201    3.271585
H     -0.041806    1.538699    3.919084
H     0.004432    -0.226399    4.264289
N     0.137695    -0.326472    -1.806843
C     0.316877    -0.494204    -2.934682
H     0.484989    -0.651558    -3.995202
