31
02/26/2023 18:15, XYZ structure generated by mol3D Class, molSimplify
Fe     -0.145846    0.017952    -0.221867
O     -0.309625    1.969110    -0.048777
H     -0.719183    2.426293    -0.806426
C     -0.524684    2.788172    1.181759
H     0.270379    2.524152    1.875256
H     -0.429531    3.834254    0.884048
H     -1.515278    2.581506    1.587894
O     1.752035    0.277228    -0.540316
H     1.955538    1.212484    -0.739733
C     2.944191    -0.372652    0.077412
H     2.738106    -1.439744    0.112556
H     3.782440    -0.167257    -0.591654
H     3.114024    0.048441    1.069120
O     0.213285    -1.882293    -0.462521
H     0.391821    -2.104085    -1.397318
C     -0.454382    -3.054670    0.172650
H     -0.380501    -2.917611    1.249488
H     -1.488848    -3.115933    -0.167432
H     0.115543    -3.935590    -0.130667
O     -2.031357    -0.305623    0.010423
H     -2.296024    -0.555896    0.915770
C     -3.221422    0.262392    -0.693563
H     -3.015419    0.205279    -1.759823
H     -4.068376    -0.378070    -0.439782
H     -3.387056    1.286994    -0.357479
C     0.169231    -0.259788    1.749478
N     0.381157    -0.431164    2.871043
H     0.572690    -0.580060    3.860557
C     -0.364221    0.260585    -2.222234
N     -0.413175    0.375076    -3.369571
H     -0.449223    0.473750    -4.383401
