28
02/26/2023 18:15, XYZ structure generated by mol3D Class, molSimplify
Fe     -0.189998    -0.047744    -0.130536
C     -0.435630    2.157806    -0.437882
N     -0.515413    3.297879    -0.605225
H     -0.582616    4.302170    -0.752172
C     2.010996    0.290378    -0.386538
N     3.148445    0.475079    -0.466495
H     4.150058    0.638947    -0.535145
O     0.056355    -2.004317    0.421554
H     0.403219    -2.191435    1.316678
C     0.169281    -3.255254    -0.387596
H     -0.291219    -3.039813    -1.348040
H     1.226555    -3.504609    -0.494065
H     -0.372032    -4.041332    0.142699
O     -2.183265    -0.291854    0.128387
H     -2.402008    -1.186605    0.459213
C     -3.416268    0.549652    0.204117
H     -3.166018    1.513812    -0.231716
H     -4.194584    0.045773    -0.372573
H     -3.698614    0.644744    1.254277
C     0.135872    0.449500    2.047931
N     0.286727    0.742738    3.155043
H     0.418770    1.002516    4.129764
O     -0.417876    -0.435902    -2.094727
H     -1.354583    -0.490812    -2.373933
C     0.434865    -0.407969    -3.320987
H     1.467078    -0.484603    -2.988493
H     0.155741    -1.267156    -3.934082
H     0.247987    0.530385    -3.847155
