31
02/26/2023 18:15, XYZ structure generated by mol3D Class, molSimplify
Fe     -0.124060    0.016255    -0.242041
O     -0.330620    1.928801    0.013921
H     -0.624845    2.414066    -0.778401
C     -0.557586    2.753702    1.238240
H     0.258508    2.534945    1.922610
H     -0.515980    3.797984    0.923622
H     -1.532226    2.508754    1.660703
O     1.764574    0.266765    -0.558297
H     1.983638    1.190830    -0.788496
C     2.940478    -0.375705    0.093266
H     2.721981    -1.438863    0.158056
H     3.787523    -0.200456    -0.573635
H     3.105982    0.074212    1.072487
O     0.222690    -1.860178    -0.524008
H     0.367935    -2.039327    -1.473923
C     -0.438239    -3.048955    0.086725
H     -0.300932    -2.971718    1.162408
H     -1.490788    -3.068526    -0.198271
H     0.093239    -3.922751    -0.296723
O     -2.000428    -0.324315    0.005900
H     -2.225191    -0.522755    0.935174
C     -3.200703    0.252855    -0.670218
H     -3.284029    1.312435    -0.424244
H     -3.074759    0.084433    -1.736329
H     -4.061767    -0.306731    -0.299545
N     0.155318    -0.290363    1.694961
C     0.364649    -0.469307    2.814309
H     0.560694    -0.637731    3.869731
N     -0.387669    0.320180    -2.189277
C     -0.459594    0.464244    -3.331169
H     -0.531066    0.600499    -4.407169
