31
02/26/2023 18:15, XYZ structure generated by mol3D Class, molSimplify
Fe     -0.275699    0.166151    -0.138178
O     -0.448791    2.157509    0.194807
H     -1.251819    2.586730    -0.161273
C     0.302380    3.152096    1.009695
H     1.243596    2.681903    1.286141
H     0.467901    4.036419    0.391181
H     -0.295411    3.393112    1.891146
O     1.719733    0.388610    -0.429954
H     1.992756    1.195415    -0.909641
C     2.941419    -0.346313    0.002135
H     2.600677    -1.239698    0.520676
H     3.520842    -0.594396    -0.889703
H     3.510990    0.301858    0.671542
O     -0.015425    -1.813948    -0.499589
H     0.661441    -2.047791    -1.164664
C     -0.597536    -3.067497    0.048080
H     -1.344429    -2.771245    0.779891
H     -1.046636    -3.622382    -0.778279
H     0.206221    -3.641684    0.514018
O     -2.255745    -0.147388    0.125777
H     -2.619934    0.066232    1.007327
C     -3.356494    -0.669695    -0.734610
H     -4.023752    0.161904    -0.970070
H     -2.889815    -1.073805    -1.629766
H     -3.880141    -1.448310    -0.177326
N     0.012737    -0.158678    1.975533
C     0.183787    -0.325610    3.104863
H     0.344040    -0.482962    4.166780
N     -0.601863    0.530995    -2.244614
C     -0.742587    0.739969    -3.371127
H     -0.875721    0.935770    -4.430440
