25
02/26/2023 18:15, XYZ structure generated by mol3D Class, molSimplify
Fe     0.000006    0.000938    -0.026066
N     0.307991    1.923602    0.264601
C     0.448991    3.059156    0.393335
H     0.583540    4.129519    0.515507
N     1.932581    -0.305889    0.209379
C     3.051796    -0.540534    0.346574
H     4.107330    -0.759550    0.477144
N     -0.307965    -1.921730    -0.316765
C     -0.448976    -3.057273    -0.445592
H     -0.583573    -4.127628    -0.567790
N     -1.932518    0.307861    -0.261678
C     -3.051700    0.542763    -0.398713
H     -4.107224    0.761911    -0.529120
O     -0.254212    -0.285176    1.834331
H     -1.120749    -0.673999    2.065710
C     0.357089    0.341159    3.044072
H     1.372499    0.622139    2.778571
H     -0.246695    1.205016    3.326264
H     0.353750    -0.426620    3.820354
O     0.254211    0.287156    -1.886539
H     1.121281    0.674816    -2.117886
C     -0.357513    -0.338886    -3.096203
H     -1.372791    -0.620029    -2.830400
H     -0.354524    0.429120    -3.872266
H     0.246210    -1.202622    -3.378900
