25
02/26/2023 18:15, XYZ structure generated by mol3D Class, molSimplify
Fe     -0.015295    0.169120    -0.217417
N     -0.270548    2.267312    0.061834
C     -0.388440    3.393438    0.286351
H     -0.500864    4.452675    0.495394
N     2.085114    0.507714    -0.497697
C     3.216616    0.689802    -0.630219
H     4.280111    0.861545    -0.755792
N     0.341336    -1.904158    -0.534788
C     0.559288    -3.035015    -0.610071
H     0.762535    -4.098459    -0.684181
O     -1.970827    -0.142528    0.099096
H     -2.479321    -0.231434    -0.733234
C     -2.906438    -0.315689    1.242897
H     -2.356861    -0.073418    2.147837
H     -3.744249    0.369047    1.088686
H     -3.244357    -1.355825    1.240611
N     0.352323    -0.112425    1.873254
C     0.646847    -0.263489    2.978914
H     0.919011    -0.405466    4.019701
O     -0.391488    0.435077    -2.167432
H     -0.517115    1.376394    -2.408125
C     -0.133338    -0.331324    -3.427489
H     -0.169727    -1.386196    -3.169520
H     -0.926757    -0.068837    -4.129951
H     0.847969    -0.037950    -3.805963
