28
02/26/2023 18:15, XYZ structure generated by mol3D Class, molSimplify
Fe     -0.009954    -0.050351    -0.037223
C     -0.285755    1.887758    -0.305178
N     -0.430284    3.019416    -0.468637
H     -0.556925    4.021038    -0.606531
C     1.915136    0.275948    -0.201016
N     3.051409    0.451265    -0.288836
H     4.055116    0.607826    -0.364721
O     0.218020    -1.955679    0.320025
H     1.063622    -2.216358    0.732374
C     -0.308840    -3.129790    -0.444164
H     -1.325762    -2.887678    -0.742637
H     0.335289    -3.308017    -1.306474
H     -0.302477    -3.975668    0.245987
O     -1.965426    -0.486349    0.091462
H     -2.136543    -1.119930    0.815735
C     -3.136978    0.433723    0.011992
H     -3.020972    1.010728    -0.903894
H     -4.029024    -0.192474    -0.050873
H     -3.167156    1.074211    0.894500
C     0.177368    0.280747    1.904901
N     0.276423    0.453453    3.039881
H     0.364055    0.605130    4.043861
O     -0.256175    -0.386656    -1.917736
H     -1.186895    -0.622769    -2.104542
C     0.419929    0.067335    -3.167451
H     1.490065    0.045969    -2.974377
H     0.160189    -0.655681    -3.942866
H     0.070468    1.068318    -3.425477
