25
02/26/2023 18:15, XYZ structure generated by mol3D Class, molSimplify
Fe     -0.076505    0.056695    -0.209633
N     -0.330937    1.992217    0.082125
C     -0.433939    3.126528    0.255488
H     -0.535397    4.195486    0.418459
N     1.864945    0.340324    -0.473400
C     2.997524    0.512692    -0.590981
H     4.065099    0.674991    -0.704211
N     0.200434    -1.872538    -0.505780
C     0.384073    -3.006307    -0.593231
H     0.555253    -4.074910    -0.682467
O     -1.915010    -0.239303    0.055011
H     -2.286538    -0.975446    -0.472229
C     -2.893457    0.195681    1.095939
H     -2.503884    1.108407    1.537997
H     -3.836222    0.380130    0.576704
H     -2.984287    -0.607306    1.829238
N     0.268709    -0.171614    1.724533
C     0.500852    -0.326738    2.841690
H     0.717674    -0.471883    3.895449
O     -0.397392    0.299843    -2.074162
H     -0.664517    1.218503    -2.275204
C     0.233572    -0.299526    -3.288642
H     0.251587    -1.375476    -3.141448
H     -0.419237    -0.038129    -4.124243
H     1.233136    0.117595    -3.414299
