28
02/26/2023 18:15, XYZ structure generated by mol3D Class, molSimplify
Fe     -0.086733    -0.077607    -0.120558
C     -0.332849    2.144508    0.091644
N     -0.473021    3.284696    0.212134
H     -0.599029    4.289062    0.316817
C     2.108364    0.243188    0.203933
N     3.243590    0.399547    0.349115
H     4.243004    0.537082    0.476854
C     0.353481    -2.267770    -0.315334
N     0.565689    -3.401625    -0.376231
H     0.751304    -4.400786    -0.428743
O     -2.069729    -0.376533    -0.408909
H     -2.297665    -0.608824    -1.332105
C     -3.336336    -0.214152    0.361651
H     -3.063491    0.172368    1.340763
H     -3.966609    0.495586    -0.178618
H     -3.815716    -1.193522    0.428847
O     -0.398457    -0.315859    1.871152
H     -0.858866    -1.134508    2.143692
C     0.191827    0.315750    3.087801
H     0.668813    1.236774    2.760657
H     -0.626089    0.521887    3.780856
H     0.914257    -0.379282    3.519815
O     0.131682    0.146547    -2.136885
H     -0.111061    1.028058    -2.485204
C     0.913975    -0.552910    -3.202710
H     1.143990    -1.546132    -2.825411
H     0.279544    -0.608964    -4.089367
H     1.820626    0.022617    -3.397688
