34
02/26/2023 18:15, XYZ structure generated by mol3D Class, molSimplify
Fe     -0.100977    -0.068593    0.195650
O     -0.226998    1.885830    0.132638
H     -0.769776    2.288354    0.835973
C     -0.270108    2.771509    -1.070658
H     0.574547    2.485834    -1.692705
H     -1.221535    2.641361    -1.586844
H     -0.147240    3.795285    -0.712055
O     1.772561    0.196199    0.510866
H     1.968566    1.146394    0.635577
C     2.962023    -0.493792    -0.067511
H     2.753567    -1.559980    -0.032233
H     3.128704    -0.138546    -1.084633
H     3.802179    -0.244685    0.584330
O     0.233865    -1.950552    0.455661
H     0.282398    -2.096843    1.423142
C     -0.300641    -3.173420    -0.202895
H     -0.107465    -3.073594    -1.268255
H     0.266816    -4.014473    0.201848
H     -1.364242    -3.277072    0.019884
O     -1.998243    -0.341088    -0.024964
H     -2.235868    -0.810658    -0.847577
C     -3.201222    0.395347    0.468111
H     -2.913350    0.906079    1.385974
H     -3.522858    1.105109    -0.295619
H     -3.971942    -0.350848    0.671765
O     -0.334110    -0.050405    2.170086
H     -1.239366    -0.268539    2.462821
C     0.354833    0.709508    3.257343
H     1.419636    0.671667    3.042146
H     -0.024329    1.731972    3.293192
H     0.143708    0.181774    4.189549
N     0.176279    -0.324141    -1.753933
C     0.367367    -0.471477    -2.881323
H     0.546358    -0.610913    -3.944078
