28
02/26/2023 18:15, XYZ structure generated by mol3D Class, molSimplify
Fe     0.068472    -0.001853    0.041693
O     -0.002567    1.924941    -0.199444
H     0.305647    2.188588    -1.089882
C     -1.137333    2.833687    0.164460
H     -1.460683    2.550131    1.161971
H     -0.723739    3.844448    0.159372
H     -1.933538    2.722848    -0.571636
O     1.921210    0.255410    0.379629
H     2.124355    1.205511    0.500947
C     3.125103    -0.443392    -0.164106
H     2.918266    -1.509381    -0.124180
H     3.312900    -0.098555    -1.181368
H     3.948995    -0.186720    0.505152
N     0.250546    -1.959133    0.349232
C     0.328592    -3.094491    0.529403
H     0.405531    -4.164341    0.700085
N     -1.883447    -0.292376    -0.256912
C     -3.003433    -0.483055    -0.448518
H     -4.060019    -0.659837    -0.626993
O     -0.373666    0.355428    1.881722
H     -0.880874    -0.376781    2.285122
C     0.520766    0.940305    2.923264
H     0.850771    1.907611    2.549430
H     -0.099741    1.076348    3.811993
H     1.351597    0.260822    3.114728
N     0.392306    -0.289730    -1.907065
C     0.521579    -0.497259    -3.033571
H     0.646583    -0.689858    -4.095506
