19
02/26/2023 18:15, XYZ structure generated by mol3D Class, molSimplify
Fe     -0.000037    -0.000040    0.019236
C     0.000010    1.982858    0.014429
N     0.000037    3.134422    -0.000841
H     0.000059    4.153269    -0.015474
C     1.982862    -0.000061    0.014071
N     3.134422    -0.000066    -0.001408
H     4.153267    -0.000070    -0.016207
C     -0.000060    -1.982920    0.014300
N     -0.000085    -3.134482    -0.001072
H     -0.000111    -4.153328    -0.015796
C     -1.982917    -0.000062    0.014626
N     -3.134481    -0.000089    -0.000564
H     -4.153330    -0.000119    -0.015148
C     -0.000031    0.000049    1.955746
N     -0.000014    0.000135    3.107939
H     -0.000005    0.000209    4.125497
N     0.000059    0.000086    -1.975534
C     0.000056    0.000094    -3.126156
H     0.000065    0.000102    -4.211030
