19
02/26/2023 18:15, XYZ structure generated by mol3D Class, molSimplify
Mn     -0.000072    0.000022    0.002941
N     0.280193    1.967672    0.333433
C     0.449893    3.093269    0.506955
H     0.608355    4.146482    0.670869
N     1.960662    -0.334434    0.316088
C     3.085946    -0.517093    0.478330
H     4.138618    -0.689161    0.631214
N     -0.280161    -1.967648    -0.327653
C     -0.450036    -3.093231    -0.501089
H     -0.608549    -4.146456    -0.664869
N     -1.960670    0.334367    -0.310433
C     -3.085842    0.517326    -0.473143
H     -4.138459    0.689530    -0.626240
C     -0.283951    -0.247587    1.966214
N     -0.448185    -0.393280    3.105813
H     -0.591453    -0.519336    4.094850
C     0.283859    0.247572    -1.960422
N     0.448111    0.392871    -3.100067
H     0.591289    0.519096    -4.089095
