19
02/26/2023 18:15, XYZ structure generated by mol3D Class, molSimplify
Mn     -0.027531    0.000460    -0.028580
N     -0.004552    2.012389    0.005401
C     0.022611    3.163101    0.033951
H     0.046127    4.240264    0.058919
N     2.014336    0.000493    0.031774
C     3.165320    0.002479    0.056233
H     4.242328    0.004099    0.078072
N     0.006355    -2.011750    -0.006559
C     0.034767    -3.162470    0.020176
H     0.059611    -4.239646    0.043195
C     -1.998566    0.009983    -0.089821
N     -3.158705    0.015649    -0.116846
H     -4.165807    0.020842    -0.141409
N     0.028281    -0.000765    2.013660
C     0.049956    -0.003470    3.164696
H     0.069397    -0.005609    4.241748
C     -0.085012    -0.009504    -1.999840
N     -0.109959    -0.015660    -3.160017
H     -0.132854    -0.021118    -4.167158
