19
02/26/2023 18:15, XYZ structure generated by mol3D Class, molSimplify
Mn     -0.000001    0.000019    0.004413
N     0.000049    2.293174    0.005367
C     0.000124    3.445763    0.006128
H     0.000181    4.523247    0.006777
N     2.293152    -0.000022    0.005366
C     3.445740    -0.000031    0.006120
H     4.523229    -0.000048    0.006765
N     -0.000022    -2.293152    0.005340
C     -0.000002    -3.445739    0.006135
H     0.000008    -4.523229    0.006820
N     -2.293170    0.000059    0.005339
C     -3.445759    0.000068    0.006123
H     -4.523248    0.000086    0.006802
C     -0.000085    -0.000052    2.336730
N     -0.000187    -0.000101    3.496373
H     -0.000265    -0.000151    4.504879
C     -0.000035    0.000010    -2.327523
N     -0.000078    0.000032    -3.487157
H     -0.000090    0.000060    -4.495665
