22
02/26/2023 18:15, XYZ structure generated by mol3D Class, molSimplify
Mn     0.082720    0.092019    -0.068637
N     -0.238823    2.062371    0.254660
C     -0.384532    3.190362    0.436702
H     -0.520820    4.245398    0.606546
N     2.061523    0.393737    -0.335075
C     3.186518    0.608771    -0.458355
H     4.238349    0.809780    -0.575407
N     0.405220    -1.878066    -0.381019
C     0.566985    -3.010269    -0.519552
H     0.719730    -4.068739    -0.649777
N     -1.897664    -0.197635    0.204621
C     -3.017915    -0.389495    0.395042
H     -4.065244    -0.567828    0.574731
N     0.394042    -0.192947    1.934698
C     0.575186    -0.354068    3.060526
H     0.745058    -0.504457    4.113907
O     -0.194463    0.416466    -2.016070
H     -1.076140    0.752652    -2.246612
C     0.402239    -0.226109    -3.184231
H     1.416147    -0.505378    -2.906584
H     -0.176264    -1.110290    -3.461016
H     0.424132    0.495913    -4.002298
