25
02/26/2023 18:15, XYZ structure generated by mol3D Class, molSimplify
Mn     -0.005085    0.028834    -0.170141
C     -0.215025    1.973607    0.097505
N     -0.300479    3.124237    0.249056
H     -0.363332    4.119225    0.396963
C     1.942584    0.239166    -0.445277
N     3.081709    0.373506    -0.620779
H     4.072386    0.493008    -0.764647
C     0.216117    -1.915464    -0.426849
N     0.356527    -3.065420    -0.537037
H     0.497818    -4.059253    -0.626944
O     -2.004960    -0.233141    0.121729
H     -2.309764    -1.144581    -0.015196
C     -3.016698    0.488440    0.891176
H     -2.733744    1.538951    0.889284
H     -3.981610    0.364790    0.396041
H     -3.054780    0.105301    1.913768
C     0.332543    -0.160579    1.770514
N     0.515624    -0.283095    2.909757
H     0.682392    -0.391841    3.898078
O     -0.342946    0.279896    -2.160821
H     -0.561439    1.189858    -2.418676
C     0.077930    -0.462562    -3.347203
H     0.057217    -1.519514    -3.089299
H     -0.636317    -0.267000    -4.149046
H     1.084552    -0.159149    -3.644936
