25
02/26/2023 18:15, XYZ structure generated by mol3D Class, molSimplify
Mn     -0.000065    0.001017    -0.006316
N     0.349812    1.975887    0.276831
C     0.496436    3.103320    0.466091
H     0.634171    4.156907    0.645757
N     1.986951    -0.279747    -0.265094
C     3.104971    -0.483726    -0.456803
H     4.150392    -0.674162    -0.635419
N     -0.349758    -1.973823    -0.289610
C     -0.496186    -3.101248    -0.479067
H     -0.633813    -4.154824    -0.658876
N     -1.987053    0.281890    0.252529
C     -3.105033    0.486029    0.444312
H     -4.150430    0.676545    0.622978
O     0.097440    -0.270860    1.992550
H     -0.486257    -0.964549    2.342332
C     1.254958    -0.125926    2.868413
H     1.796980    0.751853    2.522798
H     0.903246    0.033495    3.889310
H     1.886376    -1.015325    2.809531
O     -0.097640    0.272952    -2.005153
H     0.485807    0.966875    -2.354900
C     -1.255172    0.127656    -2.880937
H     -1.797665    -0.749470    -2.534413
H     -1.886155    1.017432    -2.823047
H     -0.903467    -0.033030    -3.901640
