28
02/26/2023 18:15, XYZ structure generated by mol3D Class, molSimplify
Mn     -0.043589    -0.104141    -0.140939
O     -0.316316    1.998735    0.164824
H     0.525698    2.390572    0.450566
C     -1.361045    3.010508    0.134296
H     -2.258100    2.521651    -0.242777
H     -1.538007    3.394095    1.141763
H     -1.070952    3.820298    -0.538919
O     2.058650    0.568550    0.225890
H     2.535700    0.885129    -0.560162
C     3.039636    0.013119    1.155846
H     2.481705    -0.331390    2.024466
H     3.563362    -0.826339    0.692858
H     3.744265    0.793276    1.450572
O     0.570064    -2.187893    -0.383164
H     1.069803    -2.399455    -1.189117
C     -0.014834    -3.423329    0.128055
H     -0.550563    -3.160892    1.038901
H     -0.705730    -3.844498    -0.606220
H     0.781269    -4.133900    0.359552
N     -2.263220    -0.449011    -0.517557
C     -3.381580    -0.653151    -0.708836
H     -4.427894    -0.842086    -0.887340
N     -0.358141    -0.508678    2.079691
C     -0.570383    -0.630022    3.206457
H     -0.767213    -0.744415    4.260265
N     0.348969    0.197693    -2.379598
C     0.434820    0.403522    -3.511117
H     0.516094    0.596079    -4.569081
