28
02/26/2023 18:15, XYZ structure generated by mol3D Class, molSimplify
Mn     0.112544    0.074647    0.064467
O     -0.044933    2.063826    0.437111
H     -0.268563    2.141238    1.382664
C     -0.723176    3.112691    -0.320325
H     -0.291074    3.107919    -1.319212
H     -1.796025    2.913391    -0.364301
H     -0.527181    4.071854    0.161706
O     2.061698    0.365859    0.611699
H     2.189936    1.328036    0.704375
C     3.266635    -0.207202    0.011441
H     3.169383    -1.289002    0.075583
H     3.357612    0.111078    -1.029174
H     4.131077    0.119065    0.592126
N     0.443033    -1.913675    -0.206606
C     0.576179    -3.047267    -0.370077
H     0.703784    -4.106522    -0.523968
N     -1.879902    -0.180947    -0.280343
C     -2.998369    -0.358093    -0.497254
H     -4.044246    -0.523116    -0.699913
O     -0.127574    0.008972    2.112464
H     0.766914    -0.126443    2.473848
C     -1.082938    -0.759473    2.907924
H     -2.077714    -0.449849    2.593183
H     -0.941400    -1.829821    2.741530
H     -0.937663    -0.511612    3.960756
N     0.418546    0.343713    -1.911557
C     0.590186    0.486912    -3.042922
H     0.749249    0.620487    -4.100399
