19
02/26/2023 18:15, XYZ structure generated by mol3D Class, molSimplify
Mn     -0.001334    -0.001329    0.069308
C     -0.001226    2.351610    -0.001547
N     -0.001196    3.511291    -0.031325
H     -0.001196    4.519496    -0.057921
C     2.351600    -0.001599    -0.001679
N     3.511280    -0.001763    -0.031524
H     4.519484    -0.001934    -0.058178
C     -0.001589    -2.353420    -0.007440
N     -0.001726    -3.513011    -0.040100
H     -0.001849    -4.521158    -0.068985
C     -2.353431    -0.001206    -0.007306
N     -3.513024    -0.001152    -0.039899
H     -4.521173    -0.001106    -0.068725
C     -0.001560    -0.001678    2.405812
N     -0.001622    -0.001807    3.565625
H     -0.001603    -0.001865    4.574349
N     0.004122    0.004267    -2.275223
C     0.006736    0.006960    -3.428008
H     0.009077    0.009384    -4.505293
