25
02/26/2023 18:15, XYZ structure generated by mol3D Class, molSimplify
Mn     0.000527    0.000460    0.019072
C     0.029195    2.361383    -0.176616
N     0.082650    3.516787    -0.270552
H     0.135894    4.520909    -0.353693
C     2.361423    0.027887    0.213688
N     3.516901    0.080642    0.307086
H     4.521113    0.133231    0.389549
C     -0.028162    -2.360606    0.211763
N     -0.081639    -3.516091    0.304660
H     -0.134857    -4.520324    0.386460
C     -2.360742    -0.025808    -0.172813
N     -3.516315    -0.077966    -0.265394
H     -4.520616    -0.130237    -0.346967
O     -0.163336    0.164679    2.208872
H     -0.800263    0.800962    2.572849
C     0.507705    -0.504389    3.316023
H     1.212812    -1.209634    2.876507
H     1.045605    0.228583    3.921694
H     -0.224083    -1.041994    3.923383
O     0.164366    -0.164304    -2.170609
H     0.799622    -0.802281    -2.534531
C     -0.505025    0.506301    -3.277920
H     -1.209553    1.212129    -2.838437
H     0.227957    1.043266    -3.884387
H     -1.043394    -0.225689    -3.884338
