31
02/26/2023 18:15, XYZ structure generated by mol3D Class, molSimplify
Mn     0.056626    -0.091103    0.086630
O     0.277716    1.847327    0.464341
H     1.218018    2.003224    0.667931
C     -0.317709    3.039894    -0.136593
H     -1.393714    2.875518    -0.158816
H     -0.088934    3.897969    0.497677
H     0.070037    3.191966    -1.146496
O     2.196123    -0.089365    0.428168
H     2.769535    -0.036679    -0.354239
C     3.028928    -0.332447    1.611238
H     2.353647    -0.378340    2.462224
H     3.567241    -1.276878    1.498612
H     3.737173    0.490224    1.731477
O     0.255605    -2.094799    -0.016043
H     1.191262    -2.335578    0.109648
C     -0.387096    -3.079350    -0.890305
H     -1.444432    -2.822699    -0.922001
H     0.049291    -3.038809    -1.890835
H     -0.257962    -4.070237    -0.451537
C     -1.852103    -0.023048    -0.211688
N     -3.004575    0.020847    -0.372400
H     -4.000766    0.060710    -0.516323
O     -0.078387    -0.416122    2.119562
H     -0.215035    -1.368832    2.268098
C     -0.901336    0.330410    3.070465
H     -0.683925    1.384839    2.912700
H     -1.962091    0.128932    2.901338
H     -0.612998    0.038487    4.081903
C     0.275035    0.156666    -1.859818
N     0.398757    0.309077    -3.006226
H     0.478306    0.442075    -4.002462
