19
02/26/2023 18:15, XYZ structure generated by mol3D Class, molSimplify
Mn     -0.009204    0.009439    -0.021099
N     0.325623    1.971235    0.302075
C     0.505992    3.094801    0.478231
H     0.675868    4.145920    0.642893
N     1.961946    -0.258349    -0.348455
C     3.089318    -0.425155    -0.513358
H     4.143966    -0.580337    -0.670053
N     -0.352706    -1.952219    -0.320494
C     -0.535930    -3.079304    -0.469610
H     -0.708409    -4.133334    -0.611270
N     -1.976289    0.287998    0.327335
C     -3.099321    0.457074    0.517466
H     -4.150270    0.614577    0.695396
N     0.267518    -0.297762    1.983243
C     0.433567    -0.481528    3.107748
H     0.587990    -0.652446    4.159940
C     -0.249305    0.275442    -1.967428
N     -0.393060    0.433349    -3.107905
H     -0.517534    0.570616    -4.098009
