28
02/26/2023 18:15, XYZ structure generated by mol3D Class, molSimplify
Mn     0.027695    -0.040120    -0.239370
O     -0.302749    1.935181    0.000809
H     0.558542    2.385929    0.048939
C     -1.268097    2.653685    0.824005
H     -2.226618    2.152707    0.701597
H     -0.962800    2.642054    1.873213
H     -1.339334    3.678963    0.456482
O     1.991001    0.481166    0.091001
H     2.489746    0.566945    -0.738732
C     2.884813    -0.088795    1.102385
H     2.426654    0.097052    2.071525
H     3.007901    -1.160564    0.934164
H     3.844571    0.427515    1.046999
O     0.557507    -1.990940    -0.472371
H     1.020366    -2.168052    -1.308466
C     -0.241591    -3.168645    -0.137926
H     -0.673328    -2.981757    0.842672
H     -1.028264    -3.314352    -0.881315
H     0.418094    -4.037070    -0.095093
N     -1.938994    -0.382611    -0.568583
C     -3.056299    -0.548607    -0.800088
H     -4.101011    -0.702412    -1.015638
N     -0.310093    -0.366687    1.723065
C     -0.514625    -0.543483    2.844127
H     -0.703752    -0.709508    3.892048
N     0.382837    0.287861    -2.204918
C     0.498286    0.515853    -3.330117
H     0.602005    0.732726    -4.381249
