19
02/26/2023 18:15, XYZ structure generated by mol3D Class, molSimplify
Mn     0.003413    -0.002421    0.003324
N     -0.351563    2.223112    0.351721
C     -0.531869    3.348836    0.519592
H     -0.700641    4.401381    0.676663
N     2.225686    0.341562    0.378327
C     3.351411    0.508136    0.559905
H     4.403932    0.664257    0.729790
C     0.396251    -2.293461    -0.307309
N     0.584723    -3.426945    -0.466432
H     0.748539    -4.412556    -0.603618
C     -2.292986    -0.320667    -0.357803
N     -3.427442    -0.481100    -0.539340
H     -4.413794    -0.620484    -0.696620
N     -0.323312    -0.354160    2.232213
C     -0.493289    -0.536483    3.357305
H     -0.652299    -0.707269    4.409256
C     0.349109    0.392817    -2.282720
N     0.517210    0.583244    -3.414593
H     0.663122    0.748541    -4.398690
