19
02/26/2023 18:15, XYZ structure generated by mol3D Class, molSimplify
Mn     0.001097    -0.000278    -0.000469
N     0.346142    2.223643    0.360233
C     0.516301    3.349120    0.541565
H     0.675330    4.401288    0.711272
N     2.226533    -0.366996    0.334920
C     3.351013    -0.551130    0.507060
H     4.402506    -0.723449    0.667451
N     -0.328851    -2.226381    -0.359340
C     -0.499691    -3.351651    -0.541354
H     -0.659785    -4.403553    -0.711808
C     -2.290129    0.382827    -0.332569
N     -3.422957    0.570825    -0.496959
H     -4.407732    0.734994    -0.639578
C     -0.358071    -0.334131    2.296901
N     -0.539442    -0.498507    3.430757
H     -0.697023    -0.641814    4.416459
C     0.398640    0.323931    -2.291662
N     0.588077    0.485301    -3.424603
H     0.753877    0.625750    -4.409385
