34
02/26/2023 18:15, XYZ structure generated by mol3D Class, molSimplify
Mn     -0.228549    0.063531    -0.260262
O     -0.101750    2.106151    0.036222
H     0.100343    2.643676    -0.744321
C     0.208743    2.867946    1.243991
H     -0.480692    2.540353    2.021118
H     1.243814    2.690145    1.540702
H     0.046647    3.927934    1.041633
O     1.822439    -0.025921    -0.459171
H     2.206861    0.524594    -1.161407
C     2.631877    -1.237546    -0.342829
H     2.265687    -1.774829    0.529124
H     2.529402    -1.849845    -1.241785
H     3.674234    -0.950873    -0.190779
O     -0.529334    -1.952616    -0.533118
H     -0.537197    -2.240023    -1.460429
C     -0.449024    -3.140247    0.322700
H     -0.506538    -2.799885    1.353705
H     -1.290967    -3.796714    0.093341
H     0.495515    -3.660415    0.148372
O     -2.241256    0.090381    0.307947
H     -2.675580    -0.758475    0.116743
C     -3.192185    1.171491    0.049157
H     -2.663671    2.093413    0.277647
H     -3.503536    1.160186    -0.998064
H     -4.052754    1.051113    0.709630
O     0.000297    -0.322500    1.759355
H     -0.876523    -0.293050    2.175595
C     1.047214    -0.144808    2.755344
H     1.951787    0.137668    2.220038
H     0.771206    0.646924    3.455168
H     1.200937    -1.082981    3.293471
C     -0.517564    0.410178    -2.163514
N     -0.690396    0.619166    -3.297203
H     -0.856556    0.797140    -4.275621
