22
02/26/2023 18:15, XYZ structure generated by mol3D Class, molSimplify
Mn     0.057952    0.079336    -0.052387
N     -0.286719    2.293640    0.306784
C     -0.428777    3.421467    0.496509
H     -0.561311    4.476174    0.673709
N     2.279825    0.445717    -0.359941
C     3.403837    0.667282    -0.485396
H     4.454711    0.874683    -0.603332
N     0.395475    -2.140370    -0.403144
C     0.548569    -3.272894    -0.552081
H     0.691853    -4.331802    -0.691581
N     -2.162757    -0.276642    0.264587
C     -3.279851    -0.480661    0.461784
H     -4.324462    -0.671490    0.646208
N     0.415904    -0.252537    2.171649
C     0.602076    -0.419312    3.296527
H     0.776178    -0.575092    4.348416
O     -0.219577    0.396486    -2.156712
H     -1.038899    0.832905    -2.441573
C     0.450901    -0.150383    -3.330414
H     1.361566    -0.630008    -2.974971
H     -0.192493    -0.884939    -3.820547
H     0.701989    0.660633    -4.017294
