19
02/26/2023 18:15, XYZ structure generated by mol3D Class, molSimplify
Mn     0.000272    0.000265    0.012056
C     -0.060394    1.985320    0.012029
N     -0.091167    3.145370    0.007520
H     -0.117837    4.152711    0.003195
C     1.985325    -0.060418    0.011833
N     3.145374    -0.091196    0.007137
H     4.152714    -0.117875    0.002621
C     0.061815    -1.984678    0.013979
N     0.093474    -3.144713    0.010390
H     0.120485    -4.152044    0.006688
C     -1.984672    0.061828    0.014132
N     -3.144707    0.093494    0.010684
H     -4.152039    0.120517    0.007124
C     -0.001794    -0.001674    1.993680
N     -0.002926    -0.002656    3.153072
H     -0.003808    -0.003383    4.161479
N     0.000165    0.000085    -2.025023
C     -0.000126    -0.000302    -3.176081
H     -0.000385    -0.000665    -4.254055
