31
02/26/2023 18:15, XYZ structure generated by mol3D Class, molSimplify
Mn     -0.221921    0.006594    -0.226166
O     -0.611731    1.984161    0.098925
H     -0.693743    2.491072    -0.724686
C     -0.014509    2.858706    1.110219
H     -0.185303    2.391118    2.077876
H     1.054603    2.980033    0.922917
H     -0.526073    3.822214    1.076727
O     1.758356    0.408905    -0.458285
H     2.019678    0.621815    -1.369041
C     2.889114    -0.258358    0.191504
H     2.706318    -0.222218    1.263512
H     2.966270    -1.292148    -0.150762
H     3.797241    0.299510    -0.043260
O     0.158903    -1.978293    -0.520622
H     0.192354    -2.206744    -1.463999
C     -0.444046    -3.107686    0.188560
H     -0.240652    -2.964621    1.248349
H     -1.519343    -3.142219    0.001509
H     0.038424    -4.025311    -0.152354
O     -2.197403    -0.408903    0.028445
H     -2.431532    -0.520412    0.964839
C     -3.325328    0.245666    -0.635721
H     -3.172928    0.131588    -1.707504
H     -4.243047    -0.267807    -0.343641
H     -3.367673    1.300878    -0.356987
C     0.045889    -0.292959    1.737539
N     0.175159    -0.474323    2.880808
H     0.309053    -0.624690    3.869070
C     -0.477943    0.285957    -2.180824
N     -0.594531    0.438042    -3.330499
H     -0.718513    0.563665    -4.323999
