31
02/26/2023 18:15, XYZ structure generated by mol3D Class, molSimplify
Mn     -0.277893    0.096545    -0.125561
O     -0.416295    2.315210    -0.022558
H     -1.118205    2.747939    -0.536944
C     -0.053830    3.190380    1.087460
H     0.774678    2.704156    1.600966
H     0.268825    4.158864    0.699046
H     -0.899227    3.316039    1.768540
O     1.831336    0.669633    -0.308639
H     2.014152    1.532859    -0.713964
C     3.075750    -0.059624    -0.118889
H     2.799845    -1.025386    0.302569
H     3.584396    -0.197531    -1.076589
H     3.721461    0.479996    0.577769
O     0.346106    -1.991969    -0.379773
H     0.918669    -2.222263    -1.130255
C     -0.352305    -3.196668    0.056187
H     -1.073611    -2.879844    0.807904
H     -0.873777    -3.657040    -0.786319
H     0.363417    -3.896826    0.492244
O     -2.372647    -0.360109    0.221979
H     -2.680941    -0.272693    1.138744
C     -3.509076    -0.697414    -0.629862
H     -3.118263    -0.841429    -1.636237
H     -3.967688    -1.623227    -0.276117
H     -4.236600    0.117498    -0.622402
N     -0.014612    -0.208044    2.130500
C     0.224852    -0.384344    3.244658
H     0.448282    -0.549381    4.286647
N     -0.650721    0.425393    -2.364635
C     -0.762276    0.596223    -3.499804
H     -0.868178    0.756330    -4.561111
