28
02/26/2023 18:15, XYZ structure generated by mol3D Class, molSimplify
Mn     0.015416    -0.011583    -0.053509
O     -0.075227    2.138274    0.422289
H     -0.371429    2.233281    1.343531
C     -0.363755    3.354399    -0.326679
H     0.064577    3.213416    -1.318003
H     -1.443004    3.508058    -0.400566
H     0.111440    4.207181    0.162566
O     2.090658    0.314481    0.569894
H     2.229659    1.273661    0.663748
C     3.367513    -0.330164    0.280413
H     3.178323    -1.402222    0.249006
H     3.753259    0.012544    -0.682691
H     4.077333    -0.104218    1.078639
N     0.387603    -2.233804    -0.375201
C     0.517125    -3.365830    -0.550379
H     0.639897    -4.424369    -0.714276
N     -2.209233    -0.335245    -0.377158
C     -3.329592    -0.499282    -0.593382
H     -4.377629    -0.653279    -0.794392
O     -0.207330    -0.064126    2.150614
H     0.684364    -0.146776    2.530184
C     -1.192546    -0.581811    3.091426
H     -2.168943    -0.413101    2.639569
H     -1.034640    -1.650129    3.257916
H     -1.121635    -0.034210    4.033509
N     0.355653    0.378689    -2.267918
C     0.528704    0.523183    -3.398474
H     0.689463    0.659651    -4.455851
