19
02/26/2023 18:15, XYZ structure generated by mol3D Class, molSimplify
Mn     0.002969    0.002120    0.006417
N     0.345092    2.219251    0.377738
C     0.514274    3.344753    0.559133
H     0.672481    4.397012    0.728891
N     2.221095    -0.364774    0.351419
C     3.346050    -0.548548    0.519880
H     4.397990    -0.720554    0.677404
N     -0.325992    -2.220509    -0.346017
C     -0.496919    -3.345319    -0.530055
H     -0.656658    -4.396949    -0.702245
C     -2.286519    0.380550    -0.305006
N     -3.420262    0.566876    -0.464240
H     -4.405941    0.729397    -0.602128
N     -0.348219    -0.333197    2.228869
C     -0.531485    -0.502167    3.353832
H     -0.702863    -0.660197    4.405797
C     0.396205    0.327967    -2.278052
N     0.584985    0.491121    -3.410820
H     0.749811    0.632918    -4.395567
