22
02/26/2023 18:15, XYZ structure generated by mol3D Class, molSimplify
Mn     -0.009071    0.052164    -0.087285
C     0.354699    2.370595    0.225723
N     0.523497    3.503866    0.408892
H     0.669310    4.488839    0.571606
C     2.318118    -0.292600    -0.408587
N     3.451151    -0.486581    -0.567893
H     4.435428    -0.659872    -0.704314
C     -0.376700    -2.261551    -0.402147
N     -0.527809    -3.402371    -0.550961
H     -0.655357    -4.394738    -0.679239
C     -2.317372    0.406302    0.237499
N     -3.447253    0.587972    0.428130
H     -4.429318    0.746520    0.596148
C     0.299694    -0.307050    2.232507
N     0.453197    -0.489331    3.368016
H     0.587174    -0.648240    4.355041
O     -0.088336    0.272035    -2.279196
H     0.492936    0.926592    -2.701184
C     -1.149273    -0.076749    -3.215439
H     -1.742807    -0.854809    -2.736038
H     -1.772655    0.796048    -3.425074
H     -0.711095    -0.466460    -4.136732
