19
02/26/2023 18:15, XYZ structure generated by mol3D Class, molSimplify
Mn     -0.000485    -0.000314    -0.009308
N     0.255317    1.927106    0.324679
C     0.422887    3.056160    0.492466
H     0.581145    4.118970    0.650993
N     1.916808    -0.342303    0.304464
C     3.045366    -0.524446    0.459552
H     4.107835    -0.695722    0.606052
N     -0.256209    -1.927451    -0.343299
C     -0.424225    -3.056409    -0.511372
H     -0.582804    -4.119096    -0.670470
N     -1.917443    0.341583    -0.323126
C     -3.046055    0.523288    -0.478431
H     -4.108487    0.694363    -0.625530
C     -0.251123    -0.217597    1.996555
N     -0.398962    -0.345635    3.132793
H     -0.532357    -0.460957    4.134714
C     0.252398    0.218518    -2.015050
N     0.400937    0.347058    -3.151142
H     0.534994    0.462892    -4.152913
