34
02/26/2023 18:15, XYZ structure generated by mol3D Class, molSimplify
Mn     -0.105290    0.026502    -0.193644
O     -0.390855    1.953002    -0.488681
H     -0.458707    2.281659    -1.402691
C     -0.807161    3.026354    0.456797
H     -1.790455    2.776976    0.859886
H     -0.038439    3.099843    1.226012
H     -0.856293    3.961176    -0.103316
O     1.794503    0.292105    -0.430984
H     2.036295    0.950977    -1.110429
C     3.048190    -0.367902    0.045631
H     2.748349    -1.190315    0.687533
H     3.587533    -0.723803    -0.834361
H     3.626818    0.380755    0.590011
O     0.247631    -1.867522    0.149297
H     0.519588    -2.362401    -0.647229
C     -0.334649    -2.846222    1.112740
H     -0.515082    -2.315398    2.044352
H     -1.255925    -3.250504    0.687280
H     0.405115    -3.635791    1.258097
O     -1.979071    -0.257662    0.055536
H     -2.213473    -0.652461    0.919307
C     -3.217655    0.048148    -0.719400
H     -2.921235    0.683288    -1.550578
H     -3.635761    -0.899219    -1.064925
H     -3.906687    0.568140    -0.051652
O     -0.078503    0.220316    1.835996
H     -0.592728    0.982715    2.158717
C     1.026981    0.013919    2.810935
H     1.439955    -0.973410    2.620577
H     1.776609    0.795581    2.681637
H     0.591779    0.048130    3.811321
C     -0.259496    -0.235323    -2.218836
N     -0.339687    -0.419671    -3.356713
H     -0.410436    -0.589778    -4.358525
