31
02/26/2023 18:15, XYZ structure generated by mol3D Class, molSimplify
Mn     -0.106089    0.037347    -0.245569
O     -0.410086    1.923598    0.035798
H     -0.406155    2.483209    -0.763608
C     -0.849273    2.749378    1.197005
H     -0.910923    2.092010    2.059166
H     -0.096676    3.526599    1.344369
H     -1.823788    3.177044    0.954700
O     1.764015    0.337883    -0.527860
H     2.026718    0.936427    -1.254139
C     2.987167    -0.208210    0.127991
H     2.688769    -1.109876    0.655910
H     3.705209    -0.437140    -0.661409
H     3.370680    0.556874    0.805858
O     0.201313    -1.850113    -0.537315
H     0.388104    -2.060286    -1.472734
C     -0.209343    -3.098754    0.159511
H     -0.129864    -2.917697    1.228394
H     -1.231181    -3.343765    -0.139700
H     0.486841    -3.881973    -0.146138
O     -1.977100    -0.291899    0.033371
H     -2.215847    -0.774739    0.847662
C     -3.218862    0.169465    -0.650965
H     -2.945317    1.012026    -1.280555
H     -3.605705    -0.665220    -1.238698
H     -3.927843    0.473046    0.121033
N     0.194368    -0.297952    1.733928
C     0.421051    -0.440709    2.855971
H     0.634162    -0.575652    3.911745
N     -0.385850    0.371151    -2.233314
C     -0.541628    0.509699    -3.368644
H     -0.690123    0.641531    -4.436470
