28
02/26/2023 18:15, XYZ structure generated by mol3D Class, molSimplify
Mn     0.078711    -0.060745    -0.261452
O     -0.266617    1.784636    -0.051018
H     0.314477    2.390167    -0.556767
C     -1.279336    2.587965    0.695230
H     -1.884201    1.886896    1.262542
H     -0.728266    3.269115    1.347785
H     -1.872360    3.132627    -0.042551
O     1.968271    0.236955    0.037575
H     2.521163    0.343416    -0.758285
C     2.838246    0.066033    1.240549
H     2.356104    0.589495    2.063022
H     2.952316    -1.000750    1.438028
H     3.797226    0.529358    1.005105
O     0.347700    -1.912652    -0.569564
H     1.008391    -2.156652    -1.249908
C     -0.338656    -3.150141    -0.094339
H     -1.034348    -2.847624    0.682271
H     -0.851077    -3.593229    -0.950981
H     0.435651    -3.815149    0.294815
N     -1.906131    -0.359480    -0.571438
C     -3.022510    -0.515034    -0.812256
H     -4.073663    -0.661894    -1.036632
N     -0.279016    -0.391381    1.692751
C     -0.469419    -0.579916    2.814006
H     -0.646853    -0.756830    3.869661
N     0.459228    0.267436    -2.233169
C     0.579915    0.449789    -3.366056
H     0.695653    0.621598    -4.431984
