25
02/26/2023 18:15, XYZ structure generated by mol3D Class, molSimplify
Mn     -0.056109    0.052026    -0.217812
N     -0.377457    2.266324    0.069183
C     -0.490152    3.403115    0.238969
H     -0.598306    4.470371    0.397005
N     1.932224    0.373122    -0.489809
C     3.063745    0.560584    -0.607049
H     4.129848    0.737056    -0.719669
N     0.237890    -2.150229    -0.584093
C     0.407281    -3.288028    -0.685896
H     0.565162    -4.356126    -0.784938
O     -1.955761    -0.215132    0.015154
H     -2.319655    -0.960240    -0.507627
C     -2.905727    0.144371    1.117848
H     -2.534248    1.066414    1.557885
H     -3.873803    0.305670    0.638561
H     -2.935604    -0.677605    1.833504
N     0.280280    -0.236246    1.770583
C     0.512207    -0.410752    2.886512
H     0.728062    -0.574415    3.938661
O     -0.405203    0.295742    -2.114048
H     -0.788801    1.178009    -2.302392
C     0.268633    -0.218750    -3.353268
H     0.593059    -1.232074    -3.133586
H     -0.499732    -0.214120    -4.129706
H     1.101181    0.440846    -3.598764
