31
02/26/2023 18:15, XYZ structure generated by mol3D Class, molSimplify
Mn     -0.116998    -0.090793    0.269327
O     0.046749    1.763211    -0.084093
H     0.946112    2.096996    0.114611
C     -0.684433    2.708368    -0.972919
H     -1.700405    2.331016    -1.049187
H     -0.661701    3.683081    -0.480791
H     -0.180985    2.737277    -1.940853
O     1.908119    0.024944    0.587715
H     2.215300    -0.038401    1.509932
C     3.076454    -0.172795    -0.319710
H     2.814046    0.268467    -1.278911
H     3.925999    0.353953    0.117777
H     3.285243    -1.239414    -0.414967
O     0.078499    -1.967203    0.480513
H     0.900656    -2.210285    0.951004
C     -0.531259    -3.192792    -0.115222
H     -1.443670    -2.881728    -0.614908
H     0.191195    -3.618412    -0.814064
H     -0.739630    -3.875812    0.711421
N     -2.102677    -0.276686    0.010913
C     -3.246567    -0.362093    -0.111944
H     -4.322783    -0.444008    -0.228697
O     -0.354722    0.212246    2.148984
H     -1.219658    -0.099208    2.483133
C     0.277361    1.073014    3.192920
H     1.155289    1.534261    2.744568
H     -0.449675    1.833544    3.484474
H     0.544170    0.430744    4.034812
N     0.063158    -0.385448    -1.743026
C     0.143173    -0.561000    -2.879360
H     0.222171    -0.726613    -3.948788
