25
02/26/2023 18:15, XYZ structure generated by mol3D Class, molSimplify
Mn     -0.000605    -0.000621    -0.029078
C     0.890373    1.836207    0.012850
N     1.426780    2.858789    0.022738
H     1.908251    3.754990    0.028817
C     1.761741    -0.975300    -0.368581
N     2.776985    -1.493556    -0.551823
H     3.675943    -1.942729    -0.709778
C     -0.891670    -1.837444    -0.070912
N     -1.428068    -2.860029    -0.080785
H     -1.909618    -3.756191    -0.086595
C     -1.763017    0.973824    0.310420
N     -2.778328    1.491990    0.493531
H     -3.677342    1.941042    0.651483
O     0.283363    -0.196418    1.838785
H     0.541230    -1.090030    2.146916
C     0.143022    0.698456    3.032047
H     -0.071845    1.694877    2.655207
H     -0.675679    0.304396    3.638697
H     1.093710    0.665742    3.568655
O     -0.284597    0.195196    -1.896930
H     -0.542019    1.088900    -2.205160
C     -0.144859    -0.699893    -3.090088
H     0.069056    -1.696466    -2.713111
H     -1.095425    -0.666378    -3.626851
H     0.674294    -0.306637    -3.696654
