22
02/26/2023 18:15, XYZ structure generated by mol3D Class, molSimplify
Mn     -0.052139    -0.078069    -0.201206
C     -0.422968    1.897806    -0.399550
N     -0.604218    3.032726    -0.506769
H     -0.757976    4.034164    -0.599633
C     1.916765    0.186089    0.174706
N     3.037739    0.360696    0.387020
H     4.025767    0.519134    0.572015
C     0.298901    -2.013492    0.260948
N     0.474491    -3.124256    0.520649
H     0.625249    -4.104712    0.747414
C     -2.056827    -0.289907    -0.308658
N     -3.200127    -0.439720    -0.361535
H     -4.206960    -0.579004    -0.405475
C     -0.340054    0.198673    1.794226
N     -0.502618    0.358311    2.924900
H     -0.646015    0.499175    3.922967
O     0.205286    -0.364647    -2.034300
H     0.968315    -0.926368    -2.294063
C     -0.493822    0.091119    -3.284460
H     -1.313690    0.730727    -2.969587
H     0.246501    0.631049    -3.880063
H     -0.843424    -0.808894    -3.796488
