19
02/26/2023 18:15, XYZ structure generated by mol3D Class, molSimplify
Mn     0.026732    -0.003764    0.026035
N     -0.343117    2.179400    0.334437
C     -0.521660    3.306394    0.510824
H     -0.689008    4.364163    0.676857
N     2.012195    0.292833    0.300241
C     3.138858    0.457344    0.482407
H     4.200085    0.612285    0.655953
N     0.366172    -2.183957    -0.324549
C     0.556320    -3.311392    -0.485591
H     0.735206    -4.369594    -0.636460
C     -1.988320    -0.283145    -0.372607
N     -3.111306    -0.443990    -0.566071
H     -4.106757    -0.587243    -0.732657
N     -0.310500    -0.338203    1.995996
C     -0.474903    -0.524092    3.122071
H     -0.627979    -0.699143    4.183324
C     0.250550    0.329240    -2.008178
N     0.402244    0.517567    -3.133317
H     0.541298    0.685084    -4.129205
