19
02/26/2023 18:15, XYZ structure generated by mol3D Class, molSimplify
Mn     -0.020944    -0.003031    -0.018095
C     -0.243577    2.029749    -0.325264
N     -0.389952    3.157177    -0.504222
H     -0.523105    4.155038    -0.664954
C     2.058004    0.330624    0.256380
N     3.185610    0.512138    0.409938
H     4.182471    0.672852    0.545083
C     0.327703    -2.007498    0.353634
N     0.499298    -3.128319    0.550852
H     0.648010    -4.121905    0.723897
N     -2.048712    -0.330842    -0.331547
C     -3.174390    -0.513580    -0.505379
H     -4.233969    -0.685768    -0.668982
C     -0.412492    0.325219    2.221587
N     -0.616049    0.487974    3.347641
H     -0.796108    0.631186    4.337401
N     0.330871    -0.335420    -2.195638
C     0.504033    -0.507072    -3.324012
H     0.666588    -0.668283    -4.383531
