22
02/26/2023 18:15, XYZ structure generated by mol3D Class, molSimplify
Mn     -0.035112    0.013904    -0.133141
C     0.250109    2.047583    0.241474
N     0.401955    3.171364    0.443414
H     0.534233    4.166037    0.622303
C     2.022639    -0.337149    0.167958
N     3.141870    -0.538691    0.353584
H     4.130930    -0.719354    0.521842
C     -0.329459    -2.033217    -0.424846
N     -0.483801    -3.163381    -0.585244
H     -0.618599    -4.163720    -0.725760
C     -2.104648    0.366858    -0.337086
N     -3.236403    0.567277    -0.419893
H     -4.237158    0.746926    -0.488762
C     -0.379268    -0.329045    2.180998
N     -0.549054    -0.496626    3.312931
H     -0.697718    -0.643871    4.306748
O     0.243672    0.332225    -2.223206
H     1.115710    0.659390    -2.514704
C     -0.561937    0.085673    -3.446602
H     -1.504513    -0.352718    -3.122941
H     -0.729242    1.039691    -3.949588
H     -0.016028    -0.608564    -4.087865
