19
02/26/2023 18:15, XYZ structure generated by mol3D Class, molSimplify
Mn     -0.072730    -0.000953    -0.078453
C     -0.388897    1.985722    0.123692
N     -0.577454    3.120449    0.209133
H     -0.745789    4.121177    0.280893
C     1.895959    -0.122539    0.106302
N     3.044942    -0.173491    0.184562
H     4.060307    -0.212289    0.248301
C     0.130654    -1.987938    -0.391904
N     0.216621    -3.122918    -0.578736
H     0.288801    -4.123901    -0.745415
N     -2.022842    -0.327494    0.178764
C     -3.153333    -0.528554    0.302405
H     -4.219288    -0.711116    0.410083
C     0.119986    0.124657    1.888742
N     0.202506    0.177572    3.037339
H     0.269958    0.217783    4.052426
N     0.181442    0.326402    -2.028715
C     0.303330    0.527558    -3.159378
H     0.409105    0.710100    -4.225532
