34
02/26/2023 18:15, XYZ structure generated by mol3D Class, molSimplify
Mn     -0.157923    -0.014161    -0.068583
O     -0.446106    1.911982    -0.222788
H     -0.433768    2.285193    -1.127493
C     -0.600118    3.002750    0.798376
H     -0.627272    2.494582    1.758878
H     0.256930    3.672051    0.710797
H     -1.537093    3.521780    0.591707
O     1.744920    0.249623    0.281834
H     1.977506    1.195805    0.364213
C     2.973835    -0.493060    -0.157734
H     2.776373    -1.550625    -0.007448
H     3.181676    -0.251577    -1.200325
H     3.778325    -0.158749    0.500827
O     0.113274    -1.941076    -0.263556
H     0.278190    -2.261298    -1.173510
C     0.142031    -3.079109    0.718242
H     0.031454    -2.624665    1.699591
H     -0.689526    -3.743685    0.480429
H     1.103081    -3.584293    0.615777
O     -2.092170    -0.309712    -0.287306
H     -2.294749    -1.254975    -0.429970
C     -3.193015    0.510603    -0.892047
H     -3.173620    1.479437    -0.400097
H     -3.034570    0.580843    -1.968299
H     -4.122819    -0.012942    -0.659593
O     -0.524635    -0.066369    2.048320
H     -1.464489    -0.167292    2.289704
C     0.280372    -0.027866    3.295070
H     1.317843    0.104888    2.995429
H     -0.056298    0.811347    3.906615
H     0.149854    -0.969573    3.831282
N     0.178950    0.038842    -2.408615
C     0.345822    0.075798    -3.551743
H     0.502627    0.109791    -4.624576
