19
02/26/2023 18:15, XYZ structure generated by mol3D Class, molSimplify
Mn     0.080996    0.000804    0.068446
N     -0.192167    1.958899    0.273243
C     -0.310412    3.094630    0.439470
H     -0.412322    4.163491    0.606756
N     2.037660    -0.236475    0.370242
C     3.159840    -0.390102    0.593726
H     4.216526    -0.529803    0.802700
C     -0.208917    -1.744362    -0.806683
N     -0.342105    -2.788018    -1.277207
H     -0.451600    -3.716906    -1.681410
C     -1.918594    -0.042707    -0.034709
N     -3.070257    -0.049399    -0.080636
H     -4.086774    -0.051982    -0.120460
N     -0.229875    -0.405181    2.001871
C     -0.354235    -0.634196    3.125771
H     -0.472847    -0.848867    4.183352
C     0.584117    0.470583    -1.812170
N     0.881627    0.769507    -2.885024
H     1.145554    1.036444    -3.830457
