31
02/26/2023 18:15, XYZ structure generated by mol3D Class, molSimplify
Mn     0.035089    -0.116094    0.185880
O     0.208596    1.791790    -0.069908
H     1.150186    2.065184    -0.035087
C     -0.589619    2.763927    -0.890018
H     -1.621411    2.424609    -0.839007
H     -0.472031    3.737146    -0.409345
H     -0.203753    2.763709    -1.909479
O     2.222968    -0.088922    0.593340
H     2.448294    0.096313    1.524534
C     3.492085    -0.196417    -0.173688
H     3.221460    -0.504557    -1.181774
H     3.989863    0.774853    -0.183451
H     4.126666    -0.948804    0.297773
O     0.252454    -2.006838    0.605256
H     1.211142    -2.205759    0.669523
C     -0.515097    -3.251710    0.265476
H     -1.567557    -3.004018    0.375356
H     -0.263338    -3.554415    -0.751024
H     -0.212580    -4.001528    0.999609
N     -2.185392    -0.332384    -0.185760
C     -3.321864    -0.421546    -0.371513
H     -4.388900    -0.506895    -0.546032
O     -0.225648    0.196822    2.096799
H     -0.348543    -0.644568    2.582241
C     -0.865897    1.310969    2.871805
H     -0.609558    2.235530    2.361437
H     -1.942301    1.141205    2.901683
H     -0.420102    1.281231    3.868460
N     0.358013    -0.446364    -1.826454
C     0.479576    -0.633707    -2.958052
H     0.595724    -0.810330    -4.023936
