28
02/26/2023 18:15, XYZ structure generated by mol3D Class, molSimplify
Mn     -0.008520    -0.053683    -0.281131
C     -0.169548    1.929403    -0.360170
N     -0.254429    3.081340    -0.382336
H     -0.326665    4.095791    -0.392378
C     1.915401    0.356498    -0.657245
N     3.020439    0.579610    -0.904215
H     3.995392    0.780005    -1.117059
O     0.087165    -2.162081    -0.411045
H     0.973632    -2.566469    -0.345420
C     -0.898668    -3.197170    0.006160
H     -1.876621    -2.848493    -0.323763
H     -0.648718    -4.125877    -0.510272
H     -0.849836    -3.337483    1.088504
O     -1.731315    -0.169490    0.541619
H     -1.871234    -0.925488    1.146014
C     -2.929791    0.732118    0.617025
H     -2.886627    1.383178    -0.251974
H     -3.807782    0.084249    0.574574
H     -2.879823    1.281028    1.558658
C     0.805160    -0.269732    1.547883
N     1.242809    -0.393135    2.608637
H     1.630923    -0.488717    3.544813
O     -0.285064    -0.307839    -2.124836
H     -0.375628    -1.276751    -2.277268
C     -0.114823    0.420446    -3.417344
H     -0.046405    1.479116    -3.179827
H     0.788098    0.044500    -3.902126
H     -1.006132    0.204038    -4.011448
