28
02/26/2023 18:15, XYZ structure generated by mol3D Class, molSimplify
Mn     0.071613    0.241568    0.196779
O     -0.240958    2.104766    0.440323
H     0.228799    2.555637    1.171172
C     -1.114331    3.097820    -0.254398
H     -1.578021    2.580790    -1.089395
H     -1.855644    3.448568    0.466664
H     -0.468419    3.910314    -0.593474
O     1.963526    0.514345    0.433559
H     2.271131    0.819309    1.309388
C     3.144363    0.037555    -0.345396
H     2.796090    -0.171479    -1.352884
H     3.873618    0.849842    -0.343312
H     3.539670    -0.857304    0.139027
N     0.419835    -1.734050    -0.123894
C     0.547623    -2.860788    -0.332011
H     0.670484    -3.921311    -0.526315
N     -1.922772    -0.043048    -0.085087
C     -3.039759    -0.272319    -0.256817
H     -4.091757    -0.484958    -0.418319
O     -0.144303    -0.077227    2.080681
H     -1.015463    0.180918    2.443335
C     0.540151    -0.976006    3.057427
H     1.511869    -1.223264    2.636124
H     0.639928    -0.419834    3.991889
H     -0.074342    -1.868678    3.188819
N     0.191679    0.453526    -1.809537
C     0.255368    0.586730    -2.952636
H     0.318581    0.714555    -4.028232
