19
02/26/2023 18:15, XYZ structure generated by mol3D Class, molSimplify
Mn     0.055806    0.055696    -0.014716
N     -0.043127    2.071305    -0.003664
C     -0.071154    3.224232    0.004168
H     -0.095411    4.310568    0.011509
N     2.071331    -0.042945    -0.003933
C     3.224258    -0.070843    0.003735
H     4.310598    -0.094988    0.010923
C     -0.041147    -2.017746    0.007286
N     -0.065650    -3.168464    0.017457
H     -0.083395    -4.187674    0.027174
C     -2.017546    -0.041348    0.007092
N     -3.168253    -0.065923    0.017154
H     -4.187463    -0.083713    0.026760
N     0.027602    0.027645    2.261509
C     0.033341    0.033427    3.415877
H     0.039232    0.039360    4.499229
C     0.023511    0.023642    -2.340859
N     0.021415    0.021615    -3.497120
H     0.022269    0.022522    -4.512739
