28
02/26/2023 18:15, XYZ structure generated by mol3D Class, molSimplify
Mn     0.229181    0.089668    0.133837
O     -0.099560    1.965477    0.504454
H     0.764326    2.416039    0.625660
C     -1.137856    2.952852    0.048692
H     -2.102592    2.466457    0.164040
H     -1.047397    3.805863    0.725282
H     -0.929307    3.230956    -0.984340
O     2.253888    0.634480    0.659871
H     2.537541    0.292325    1.528872
C     3.478882    0.930377    -0.126545
H     3.150851    1.423217    -1.039448
H     4.108113    1.601713    0.459942
H     3.999946    -0.002533    -0.347116
N     0.594871    -1.893370    -0.185497
C     0.827985    -2.996035    -0.430144
H     1.046171    -4.036713    -0.654749
N     -1.980124    -0.258702    -0.257740
C     -3.081670    -0.508455    -0.497796
H     -4.116863    -0.739271    -0.721821
O     -0.022776    -0.235844    2.040904
H     -0.239134    0.605065    2.494972
C     -0.621615    -1.371113    2.821272
H     -0.166141    -2.282770    2.445304
H     -0.335032    -1.197214    3.861133
H     -1.703663    -1.358484    2.691510
N     0.543719    0.416522    -1.857153
C     0.678731    0.552303    -2.994404
H     0.808082    0.683130    -4.065507
