18

N         -0.06897       -2.02833        0.15330
N          0.03080       -0.14687        2.00944
C         -0.15228       -2.96185       -0.81374
C         -0.25963       -4.31387       -0.51286
C         -0.28064       -4.66212        0.84035
N         -0.19515       -3.74362        1.80821
N          0.08149       -1.77757        3.75097
C          0.18274       -0.79848        4.65587
C          0.21199        0.54899        4.28634
C          0.13222        0.83201        2.92863
C         -0.09285       -2.47579        1.43364
C          0.01150       -1.42040        2.47591
H          0.14421        1.84737        2.55005
H          0.29445        1.34267        5.02046
H          0.24183       -1.10460        5.69727
H         -0.12773       -2.60075       -1.83526
H         -0.32624       -5.05918       -1.29754
H         -0.36750       -5.69735        1.16047
