21

Co     -0.000694    0.000156    0.001587
P     -0.453396    2.652833    -0.393728
H     -1.726505    3.215114    -0.155927
H     0.333519    3.563504    0.343925
H     -0.226170    3.157617    -1.692327
P     2.323283    0.300551    -0.404591
H     2.750345    1.575901    -0.819960
H     3.174470    0.051543    0.687796
H     2.880323    -0.528871    -1.395330
P     0.452257    -2.650047    0.411034
H     1.765028    -3.169459    0.426853
H     -0.024396    -3.210452    1.615794
H     -0.132960    -3.551094    -0.504567
P     -2.327325    -0.300993    0.393903
H     -2.796529    -1.619009    0.549277
H     -2.841557    0.328159    1.542531
H     -3.179991    0.195104    -0.609331
C     0.274340    0.319754    1.821431
O     0.442817    0.516493    2.924403
C     -0.275967    -0.319641    -1.816700
O     -0.445172    -0.516849    -2.919534
