17

Co     -0.201189    -0.044186    -0.028561
S     -0.620457    2.358671    0.340632
H     0.058319    2.619482    1.476654
H     0.279787    2.965154    -0.460404
S     2.347737    0.408686    0.382421
H     2.754427    -0.498406    1.294226
H     3.001148    -0.170060    -0.645869
S     0.095709    -2.456222    -0.415385
H     0.844142    -2.859434    0.632122
H     1.113621    -2.508232    -1.298928
S     -2.724014    -0.431941    -0.424537
H     -3.272247    0.220647    0.620976
H     -3.024420    0.537177    -1.313506
C     -0.437363    -0.363436    1.853171
N     -0.551926    -0.546994    3.002478
C     0.069403    0.283165    -1.904317
N     0.267339    0.486440    -3.038873
