15

Co     0.047295    0.003115    -0.086191
C     0.428133    2.248079    -0.388339
O     0.619664    3.343373    -0.560199
C     2.299522    -0.300831    -0.337265
O     3.406292    -0.453133    -0.468804
C     -0.320171    -2.204459    0.378522
O     -0.502061    -3.290400    0.609645
C     -2.189830    0.331545    0.326351
O     -3.287401    0.480592    0.523933
C     0.444845    0.305826    2.195766
O     0.645498    0.450918    3.293066
N     -0.340918    -0.197484    -2.189352
H     -1.154645    0.339627    -2.508576
H     0.436657    0.109309    -2.783170
H     -0.532723    -1.165326    -2.469922
