37

Co     0.000133    -0.000098    0.169054
O     0.000147    -0.001128    2.515666
H     0.771200    0.046266    3.103965
H     -0.771931    -0.041422    3.103161
C     0.002387    1.934514    0.140352
N     0.003163    3.092905    0.099574
C     0.009952    4.522853    0.026297
H     0.845320    4.841372    -0.601928
H     0.122261    4.931890    1.033206
H     -0.933046    4.861113    -0.409977
C     1.934377    0.003268    0.132749
N     3.092898    0.004154    0.090065
C     4.522911    0.008397    0.013702
H     4.846750    -0.826716    -0.612058
H     4.934776    -0.099300    1.020118
H     4.852569    0.952530    -0.426249
C     -0.002188    -1.934690    0.140419
N     -0.003034    -3.092986    0.099527
C     -0.009930    -4.522982    0.026339
H     -0.845363    -4.841423    -0.601835
H     -0.122260    -4.931919    1.033284
H     0.933074    -4.861323    -0.409855
C     -1.933998    -0.003417    0.133673
N     -3.092583    -0.004242    0.091397
C     -4.522512    -0.008184    0.013206
H     -4.826951    -0.614993    -0.842975
H     -4.875214    1.018134    -0.113197
H     -4.929844    -0.431915    0.934403
O     -0.000569    -0.000205    -2.275402
C     0.761894    -0.804115    -3.104749
C     0.494362    -0.521986    -4.401857
C     -0.494921    0.521963    -4.401883
C     -0.762883    0.803852    -3.104806
H     1.417768    -1.500720    -2.607971
H     0.940598    -0.993238    -5.266572
H     -1.419149    1.500179    -2.608139
H     -0.940878    0.993417    -5.266633
