19

Co     -0.003732    -0.002576    -0.043014
O     -0.044122    2.295675    -0.197890
H     -0.171191    2.889570    -0.974122
O     1.329429    2.627160    0.242061
O     2.140482    1.802140    -0.405110
O     1.935226    0.458181    0.300614
H     2.768448    -0.013112    0.069340
O     0.060825    -2.274269    0.714773
H     0.608157    -3.091977    0.654721
O     0.096944    -2.034095    2.208559
O     -0.808967    -1.163524    2.426819
O     -0.174908    0.217288    1.913787
H     -0.761681    0.875182    2.354082
O     -1.965672    -0.454363    -0.367513
H     -2.729471    0.087181    -0.054383
O     -2.096520    -0.263052    -1.916593
O     -1.175317    -0.983666    -2.398560
O     0.154579    -0.198463    -2.029618
H     0.828934    -0.741334    -2.502564
