21

Co     0.000001    0.000273    -0.000004
C     -0.000018    2.121163    -0.000003
O     0.000004    3.248575    0.000005
C     2.121109    0.000086    -0.000000
O     3.248529    0.000029    0.000086
C     0.000017    -2.121111    0.000003
O     -0.000004    -3.248520    -0.000005
C     -2.121112    0.000051    0.000001
O     -3.248526    0.000036    -0.000086
C     0.000268    0.000394    1.937075
N     0.000397    0.000458    3.092817
C     -0.000058    -0.000114    4.529899
H     0.608092    -0.839167    4.877345
H     -1.030814    -0.107778    4.876992
H     0.422100    0.945909    4.878333
C     -0.000269    0.000394    -1.937074
N     -0.000397    0.000462    -3.092808
C     0.000058    -0.000111    -4.529897
H     -0.608092    -0.839164    -4.877343
H     1.030813    -0.107776    -4.876995
H     -0.422100    0.945911    -4.878344
