14

Co     -0.023211    0.050176    -0.068878
C     0.405274    2.246343    0.262826
O     0.619008    3.339605    0.418390
C     2.189818    -0.240802    -0.386463
O     3.289998    -0.386661    -0.571883
C     -0.438030    -2.150957    -0.313559
O     -0.650725    -3.246350    -0.458686
C     -2.232372    0.329246    0.329895
O     -3.330269    0.470924    0.528987
C     0.292513    -0.287988    2.216910
O     0.440416    -0.444784    3.320715
S     -0.431321    0.514116    -2.586248
H     -0.905500    -0.634925    -3.118414
H     0.774408    0.442060    -3.193923
