32

Co     -0.057442    -0.066433    0.369536
N     -0.426682    2.104732    0.147775
C     -0.656359    3.151427    -0.286716
C     -0.948958    4.465489    -0.847643
H     -1.886431    4.850884    -0.435540
H     -0.142466    5.165594    -0.609585
H     -1.043722    4.388578    -1.935253
N     2.114679    0.231926    0.082248
C     3.171075    0.343454    -0.374531
C     4.498290    0.481553    -0.963157
H     4.428710    1.029352    -1.907970
H     5.160009    1.026044    -0.282843
H     4.924982    -0.506776    -1.159260
N     0.333679    -2.211818    0.744136
C     0.470092    -3.353930    0.625705
C     0.641583    -4.793132    0.463079
H     1.398092    -4.992633    -0.302007
H     0.960425    -5.246388    1.406498
H     -0.303385    -5.247857    0.150587
N     -2.214376    -0.337341    0.800827
C     -3.346892    -0.529046    0.667173
C     -4.773415    -0.768487    0.480655
H     -5.356872    -0.097200    1.117941
H     -5.041632    -0.590367    -0.565344
H     -5.018069    -1.803600    0.737303
N     0.268321    0.280219    2.540050
C     0.435575    0.459433    3.669638
C     0.646162    0.685429    5.095019
H     1.682644    0.457584    5.361634
H     0.436268    1.730251    5.343307
H     -0.020155    0.041715    5.677365
F     -0.333724    -0.348739    -1.377389
