28

Co     -0.051341    0.045868    0.111359
O     -0.376875    1.985146    -0.315223
H     0.499890    2.395563    -0.457491
H     -0.862676    2.561280    0.302023
O     2.040600    0.734083    -0.235995
H     2.453766    0.455870    -1.073172
H     2.761142    0.792441    0.415283
O     0.278585    -1.932333    0.274256
H     0.711888    -2.301306    1.065023
H     -0.591797    -2.373424    0.201365
O     -2.140684    -0.672145    -0.150708
H     -2.931136    -0.477622    0.382157
H     -2.448040    -0.755297    -1.071454
C     -0.083426    0.316764    2.054381
N     -0.092097    0.454211    3.205331
C     -0.111473    0.616238    4.632229
H     0.594383    -0.090154    5.076534
H     -1.122871    0.414662    4.993554
H     0.179261    1.641035    4.876075
O     -0.000853    -0.279458    -1.952971
C     0.812392    -1.209246    -2.621148
C     0.685794    -1.035610    -3.954370
C     -0.242967    0.045113    -4.163148
C     -0.635433    0.481820    -2.947338
H     1.329203    -1.915847    -1.993144
H     1.188169    -1.613915    -4.718055
H     -1.271390    1.276925    -2.595069
H     -0.572728    0.439144    -5.114891
