43

Co     -0.020539    -0.099083    -0.062370
N     0.366520    1.937986    -0.329482
H     -0.556496    2.372665    -0.376473
H     0.737711    2.022903    -1.277449
C     1.223756    2.777611    0.559082
H     0.792637    2.821567    1.560814
H     2.227222    2.350755    0.621532
H     1.306360    3.799992    0.179815
N     2.314432    -0.565957    -0.306520
H     2.790214    0.328315    -0.172579
H     2.501170    -0.784761    -1.286784
C     3.028052    -1.579511    0.521928
H     2.857679    -1.375830    1.582796
H     2.643123    -2.577368    0.294808
H     4.108161    -1.586895    0.344499
N     -0.305703    -2.133979    0.095852
H     0.144293    -2.410113    0.968854
H     0.284354    -2.552246    -0.626579
C     -1.641038    -2.797133    0.047212
H     -2.253807    -2.445641    0.879365
H     -2.147330    -2.559506    -0.892334
H     -1.549965    -3.884941    0.117798
N     -2.426918    0.475780    0.252568
H     -2.588663    0.463941    1.261844
H     -2.949460    -0.336485    -0.079015
C     -3.105969    1.688360    -0.286972
H     -2.654349    2.588072    0.142626
H     -2.994079    1.725633    -1.375315
H     -4.176745    1.715191    -0.059681
N     0.233062    0.129708    1.994004
H     -0.283668    0.980059    2.222284
H     1.212649    0.379023    2.137816
C     -0.125887    -0.900857    3.013056
H     -1.154656    -1.232436    2.857994
H     0.547428    -1.756467    2.922618
H     -0.032235    -0.506818    4.028992
N     -0.522633    -0.208643    -2.072506
H     -1.094823    0.611560    -2.283868
H     -1.179358    -0.986343    -2.158955
C     0.501570    -0.360628    -3.146744
H     1.218399    0.462717    -3.096362
H     1.033053    -1.303970    -3.005384
H     0.046248    -0.364935    -4.141195
