39

Co     -0.030188    -0.064468    0.002542
N     0.084024    1.981710    -0.002871
H     -0.376385    2.391492    0.812037
H     -0.370194    2.385294    -0.824356
H     1.037198    2.351930    -0.000781
N     2.369046    -0.351834    -0.000589
H     2.864813    -0.000121    0.820634
H     2.869622    0.033009    -0.803878
H     2.594351    -1.348541    -0.020767
N     -0.128766    -2.108631    0.009474
H     0.338435    -2.501788    0.828609
H     0.333014    -2.511128    -0.808170
H     -1.075890    -2.493809    0.015024
N     -2.420563    0.221993    0.002795
H     -2.912972    -0.115743    0.831832
H     -2.924113    -0.176709    -0.791722
H     -2.646063    1.218145    -0.033469
C     -0.017495    -0.072517    4.852478
C     0.872028    0.729437    4.136560
C     0.834018    0.701757    2.746756
N     -0.028389    -0.065195    2.044779
C     -0.883905    -0.837555    2.749692
C     -0.910748    -0.872806    4.139417
H     -0.014097    -0.072900    5.938290
H     1.589327    1.367955    4.641872
H     1.520283    1.312338    2.170116
H     -1.573477    -1.445806    2.175114
H     -1.621321    -1.515856    4.647614
C     -0.024363    -0.086563    -4.847750
C     -0.913883    -0.887553    -4.130892
C     -0.883976    -0.849222    -2.741233
N     -0.029019    -0.072716    -2.040384
C     0.829317    0.695386    -2.746129
C     0.864098    0.719824    -4.135810
H     -0.023602    -0.089984    -5.933463
H     -1.624022    -1.533807    -4.635748
H     -1.570996    -1.457657    -2.163340
H     1.514561    1.309312    -2.172180
H     1.577825    1.359174    -4.644299
