24

Co     0.000320    0.000470    0.035615
C     0.017991    2.371843    -0.002359
O     0.047516    3.497550    0.052317
C     1.943974    0.024218    0.059370
O     3.070307    0.044942    0.079383
C     -0.018003    -2.371298    -0.001807
O     -0.047859    -3.497017    0.052554
C     -1.943383    -0.023659    0.059635
O     -3.069663    -0.044873    0.080009
C     0.000531    0.000709    1.975800
N     0.000379    0.000579    3.131618
C     -0.000357    -0.000568    4.569238
H     0.609183    -0.839246    4.915585
H     -1.031382    -0.109957    4.915318
H     0.420601    0.946330    4.917275
O     -0.000015    0.000054    -1.994813
C     0.777423    -0.820228    -2.840187
C     0.496126    -0.522488    -4.124111
C     -0.496407    0.522348    -4.124116
C     -0.777564    0.820234    -2.840193
H     1.432189    -1.524581    -2.352456
H     0.945077    -0.985749    -4.992901
H     -1.432254    1.524671    -2.352473
H     -0.945446    0.985523    -4.992909
