29

Co     0.000010    0.000186    -0.000791
C     0.023750    -0.023166    2.309832
O     0.034939    -0.035941    3.438488
C     -0.023431    0.022898    -2.310724
O     -0.035028    0.036456    -3.439348
C     0.011940    2.182600    -0.032060
N     0.009225    3.342843    -0.021628
C     0.002958    4.775318    -0.004737
H     0.837714    5.138567    -0.608901
H     0.110337    5.119403    1.027157
H     -0.942024    5.130588    -0.422689
C     2.182912    0.014704    0.030378
N     3.343078    0.011671    0.018902
C     4.775258    0.002939    0.006352
H     5.118832    -0.835418    -0.604614
H     5.137721    -0.108173    1.031030
H     5.132349    0.944009    -0.418151
C     -0.011949    -2.182475    0.030914
N     -0.009472    -3.342696    0.018594
C     -0.003940    -4.775196    0.006156
H     -0.838012    -5.128217    -0.604975
H     -0.109361    -5.138545    1.031367
H     0.941850    -5.121691    -0.417753
C     -2.182835    -0.014301    -0.030088
N     -3.343059    -0.010617    -0.019850
C     -4.775209    -0.003077    -0.004992
H     -5.139512    -0.607467    -0.838949
H     -5.124549    1.026621    -0.110976
H     -5.124490    -0.421822    0.942054
