19

Co     -0.164305    -0.175694    0.047471
S     0.213604    2.421446    0.477100
H     0.790560    2.595772    1.684788
H     1.299322    2.808604    -0.225314
S     2.430822    -0.621674    0.021690
H     2.991679    -0.122226    1.142330
H     2.610272    -1.915519    0.362674
S     -0.533109    -2.774382    -0.375558
H     -1.568117    -3.165745    0.396994
H     -1.184284    -2.958988    -1.543034
S     -2.758281    0.280321    0.054677
H     -3.315960    -0.258802    -1.049227
H     -2.927441    1.560834    -0.338261
O     -0.437880    -0.542533    2.090790
H     -1.311305    -0.637768    2.511316
H     0.223047    -0.481098    2.802195
O     0.106963    0.193946    -1.994539
H     -0.544624    0.119251    -2.713253
H     0.981656    0.316048    -2.405501
