19

Co     0.042824    -0.073320    -0.083242
O     0.314925    2.053613    0.085653
C     1.464609    2.417209    0.291451
H     1.726878    3.473827    0.427209
C     2.528822    1.301201    0.353552
H     3.592408    1.519916    0.509238
O     2.117245    0.155330    0.224513
O     -0.266808    -2.147913    0.145576
C     -0.395145    -2.559040    1.291653
H     -0.550277    -3.622586    1.511021
C     -0.332578    -1.494438    2.407242
H     -0.469647    -1.756175    3.463840
O     -0.125639    -0.345108    2.043277
O     -2.084244    0.092788    -0.356281
C     -2.447594    0.294276    -1.506772
H     -3.504414    0.426260    -1.770209
C     -1.331088    0.357549    -2.570353
H     -1.549724    0.511057    -3.634289
O     -0.185171    0.232038    -2.157837
