50

Co     0.056424    -0.084310    0.209869
C     0.180418    -0.058628    -1.753460
O     0.247238    -0.055848    -2.880393
O     0.047306    1.974340    0.125687
C     -1.094140    2.772803    -0.083655
C     -0.710172    3.986237    -0.527252
C     0.728348    3.980620    -0.623774
C     1.158908    2.763878    -0.234194
H     -2.034780    2.316399    0.171486
H     -1.371158    4.811622    -0.754834
H     2.120144    2.295306    -0.112896
H     1.357883    4.802247    -0.937052
O     2.398741    -0.090707    0.291931
C     3.153117    0.159469    1.441968
C     4.457995    0.294724    1.117907
C     4.559452    0.122167    -0.307858
C     3.310710    -0.109397    -0.768460
H     2.595875    0.190202    2.362391
H     5.269450    0.486800    1.806594
H     2.904404    -0.316923    -1.745324
H     5.460581    0.159924    -0.904727
O     0.064974    -2.128175    0.086216
C     1.189188    -2.969413    0.160051
C     0.802785    -4.241345    -0.067706
C     -0.619823    -4.229529    -0.300290
C     -1.038949    -2.951079    -0.205416
H     2.118842    -2.476666    0.384286
H     1.450551    -5.107490    -0.071650
H     -1.985090    -2.444180    -0.280712
H     -1.247220    -5.083735    -0.515837
O     -2.328346    -0.105214    0.064738
C     -3.071128    0.033131    -1.111190
C     -4.330294    0.429996    -0.821847
C     -4.410640    0.556452    0.609391
C     -3.197013    0.226839    1.106439
H     -2.563077    -0.215467    -2.029249
H     -5.124059    0.602676    -1.535993
H     -2.793062    0.149444    2.101396
H     -5.277888    0.844198    1.187779
C     -0.299719    -0.129799    4.971554
C     -0.492527    -1.296013    4.231340
C     -0.389369    -1.249184    2.846139
N     -0.111681    -0.102017    2.178427
C     0.067080    1.032596    2.900141
C     -0.017088    1.052826    4.286848
H     -0.367396    -0.142054    6.055199
H     -0.717835    -2.241907    4.711990
H     -0.537926    -2.144326    2.260164
H     0.289710    1.935403    2.349854
H     0.138924    1.988607    4.813055
