19

Co     -0.051836    0.028456    -0.023198
O     0.180552    2.194210    0.107536
C     1.348442    2.533556    0.217201
H     1.658352    3.583521    0.290757
C     2.371950    1.384933    0.251125
H     3.451048    1.554808    0.347061
O     1.919480    0.245122    0.169709
O     0.092225    -2.114924    0.223398
C     0.022540    -2.485100    1.384067
H     0.089118    -3.541602    1.672605
C     -0.171022    -1.370100    2.435987
H     -0.273398    -1.588072    3.506155
O     -0.204038    -0.221114    2.012718
O     -2.013389    -0.197212    -0.250259
C     -2.445488    -0.076844    -1.395927
H     -3.513619    -0.186321    -1.616290
C     -1.392524    0.233866    -2.464146
H     -1.640995    0.380168    -3.521971
O     -0.239117    0.305874    -2.050185
