21

Co     -0.000042    -0.000039    0.002525
N     -0.158167    2.030511    0.010593
H     -1.122894    2.372218    0.023165
H     0.285412    2.466821    0.824412
H     0.267120    2.473374    -0.809442
N     2.030525    0.158321    -0.004585
H     2.372164    1.123156    -0.003480
H     2.474449    -0.278406    0.808814
H     2.465840    -0.273742    -0.825124
N     0.158685    -2.030544    -0.004380
H     1.122558    -2.371878    0.040694
H     -0.315141    -2.476892    0.786555
H     -0.234760    -2.463662    -0.845312
N     -2.030620    -0.158369    0.001508
H     -2.372202    -1.122917    -0.022758
H     -2.469659    0.255643    0.829358
H     -2.470887    0.296117    -0.804095
C     0.007464    -0.012284    2.582034
O     0.011995    -0.020091    3.711065
C     -0.008162    0.012321    -2.585850
O     -0.013602    0.020291    -3.714895
