19

Co     -0.038810    0.003531    -0.127505
S     -0.452240    2.571535    0.107588
H     -1.767432    2.719452    0.378870
H     -0.044813    2.933524    1.342385
S     2.499741    0.424973    -0.591682
H     2.611708    1.685989    -1.061970
H     3.116941    0.693324    0.578832
S     0.293449    -2.565679    -0.654704
H     -0.108768    -3.265954    0.427386
H     1.599901    -2.877568    -0.508843
S     -2.620700    -0.421537    0.199718
H     -3.051469    -1.069327    -0.904070
H     -2.768868    -1.481010    1.023512
S     0.247213    -0.546623    2.438264
H     0.516384    0.585283    3.123484
H     1.482820    -1.064919    2.602652
S     -0.621071    0.360964    -2.665187
H     0.108995    1.404823    -3.112791
H     0.087471    -0.572441    -3.336338
