17

Co     0.000261    -0.078518    -0.021294
C     0.265074    2.196057    0.329589
O     0.391372    3.301237    0.503315
C     2.260723    -0.475803    0.299166
O     3.355733    -0.668121    0.477294
C     -0.253180    -2.348862    -0.384328
O     -0.370730    -3.450883    -0.582501
C     -2.247097    0.353487    -0.337238
O     -3.337565    0.575039    -0.509097
N     -0.276618    -0.388806    2.112891
H     -1.261746    -0.507363    2.371027
H     0.055654    0.389472    2.691814
H     0.198946    -1.219410    2.479386
N     0.280694    0.169689    -2.162491
H     1.169982    -0.203843    -2.509220
H     0.265111    1.149997    -2.461354
H     -0.440345    -0.292260    -2.726651
