19

Co     -0.036818    -0.176319    -0.056622
O     0.162050    1.906101    0.308235
H     0.448921    2.276013    1.162507
H     0.346556    2.575939    -0.373911
O     2.016063    -0.493150    -0.285823
H     2.709930    0.134727    -0.551264
H     2.370559    -1.393499    -0.387202
O     -0.238030    -2.256113    -0.395453
H     -0.469434    -2.905173    0.291304
H     -0.496379    -2.643672    -1.250185
O     -2.080079    0.177267    0.224024
H     -2.799176    -0.414282    0.504538
H     -2.378451    1.094546    0.354168
S     0.363183    -0.498301    2.564539
H     -0.665349    -1.137830    3.158783
H     1.256230    -1.490888    2.754906
S     -0.277309    0.606011    -2.581562
H     -1.484846    0.168385    -2.993460
H     0.433993    -0.229019    -3.367336
