18

Co     -0.000842    0.001183    -0.036365
C     -0.003372    1.946544    -0.071267
O     -0.006167    3.072423    -0.084166
C     2.354681    0.002253    0.076456
O     3.481003    -0.000442    0.038131
C     0.002869    -1.944431    -0.073601
O     0.005071    -3.070325    -0.087144
C     -2.355413    -0.000376    0.072562
O     -3.481726    0.001633    0.038945
O     -0.000824    -0.001282    2.005006
H     0.784749    0.038689    2.580986
H     -0.784611    -0.039462    2.583623
C     -0.000060    0.001290    -1.972832
N     0.000237    0.000052    -3.128345
C     0.000986    -0.001596    -4.566166
H     -0.611993    -0.837860    -4.912404
H     1.032298    -0.114885    -4.910448
H     -0.416888    0.946594    -4.914288
