73
03/24/2023 16:57, XYZ structure generated by mol3D Class, molSimplify
Co     -0.145627    -0.158680    -0.031433
O     -0.550984    1.938361    0.097576
C     -0.851459    2.743001    1.018503
N     -1.940584    3.558194    1.002639
C     -1.871262    4.554926    2.076332
C     -0.879164    3.876464    3.051708
N     -0.150845    2.974220    2.153225
H     -2.849998    4.727229    2.527940
H     -1.478636    5.509162    1.703680
H     -1.407021    3.312473    3.831144
H     -0.208274    4.594695    3.527384
H     -2.426838    3.724689    0.132942
H     0.556717    2.315195    2.471472
O     1.963948    0.382389    -0.058946
C     2.892220    -0.155734    -0.716986
N     4.205706    0.200574    -0.629159
C     4.991237    -0.473329    -1.671823
C     4.082307    -1.679759    -1.998467
N     2.762695    -1.168029    -1.609522
H     5.972798    -0.774955    -1.301657
H     5.124825    0.175573    -2.546323
H     4.354669    -2.556534    -1.397183
H     4.114330    -1.952404    -3.055276
H     4.441485    1.130817    -0.309727
H     1.938598    -1.759510    -1.526036
O     0.321451    -2.192616    -0.422263
C     -0.209801    -3.233171    0.045483
N     -1.093271    -3.302363    1.071493
C     -1.650002    -4.654234    1.186403
C     -0.566420    -5.494754    0.472751
N     0.023884    -4.491113    -0.419325
H     -2.616153    -4.729875    0.670606
H     -1.783328    -4.947102    2.229838
H     -0.986042    -6.332035    -0.087739
H     0.176648    -5.876397    1.184160
H     -1.599505    -2.462409    1.329786
H     0.846853    -4.679094    -0.974194
O     -2.156692    -0.604428    0.375481
C     -3.142537    -0.534532    -0.404042
N     -4.435983    -0.400689    -0.004518
C     -5.351514    -0.588514    -1.136063
C     -4.415876    -0.287086    -2.331412
N     -3.101626    -0.586780    -1.756206
H     -6.199342    0.097071    -1.083336
H     -5.728828    -1.618152    -1.172626
H     -4.482640    0.765906    -2.634740
H     -4.630406    -0.917122    -3.196954
H     -4.692860    -0.611736    0.949812
H     -2.212390    -0.419651    -2.220994
O     0.034064    -0.575877    2.042210
C     0.870870    -0.288244    2.920551
N     1.865969    0.665528    2.809711
C     2.798377    0.523846    3.944642
C     1.907364    -0.155562    5.008380
N     0.929046    -0.836791    4.156593
H     3.177177    1.492944    4.274214
H     3.646607    -0.116593    3.674470
H     1.417886    0.579639    5.659259
H     2.461285    -0.862549    5.628927
H     2.227225    0.773937    1.860601
H     0.150703    -1.372123    4.516022
O     -0.283210    0.007085    -2.155560
C     0.086851    0.950260    -2.906862
N     -0.023842    0.927627    -4.262515
C     0.677315    2.071055    -4.859421
C     0.736478    3.047143    -3.660540
N     0.636085    2.126543    -2.521216
H     0.126150    2.481572    -5.707493
H     1.681792    1.784494    -5.194540
H     -0.107896    3.748015    -3.674639
H     1.665978    3.619386    -3.633958
H     -0.100508    0.037490    -4.736692
H     0.463784    2.433333    -1.566990
