23

Co     0.024421    -0.213976    -0.047115
N     0.320962    1.951639    0.292167
H     1.011790    2.132795    1.024808
H     -0.510116    2.477491    0.572865
H     0.673045    2.435441    -0.537590
N     2.192811    -0.505075    0.222481
H     2.371454    -0.500394    1.229876
H     2.777667    0.240098    -0.163930
H     2.603859    -1.373566    -0.127218
N     -0.248521    -2.385261    -0.327673
H     -1.093809    -2.774094    0.097730
H     0.511733    -2.992154    -0.013280
H     -0.345224    -2.560156    -1.330774
N     -2.142091    0.056563    -0.359794
H     -2.464003    1.023111    -0.443281
H     -2.718063    -0.352725    0.380253
H     -2.438785    -0.404379    -1.223743
O     -0.080002    -0.396641    2.170177
H     -0.580433    0.196243    2.757330
H     0.001954    -1.231872    2.663053
O     0.160654    -0.124997    -2.273169
H     -0.248005    0.555400    -2.836559
H     0.918313    -0.455576    -2.787301
