34

Co     -0.090242    -0.088920    0.032206
C     0.354389    2.946671    -0.519954
N     0.187985    1.827595    -0.287260
C     0.564293    4.357003    -0.817435
H     0.419536    4.535077    -1.888016
H     1.582409    4.648860    -0.540674
H     -0.147644    4.967904    -0.253241
C     2.964384    -0.560199    -0.421547
N     1.829747    -0.403386    -0.267010
C     4.394765    -0.756770    -0.614763
H     4.856738    0.177087    -0.951025
H     4.567391    -1.531461    -1.368913
H     4.857942    -1.066178    0.327818
C     -0.534242    -3.138867    0.534979
N     -0.372809    -2.014018    0.324034
C     -0.737357    -4.556491    0.801690
H     0.224247    -5.079622    0.787389
H     -1.391568    -4.990643    0.038630
H     -1.200135    -4.686530    1.785381
C     -3.137647    0.434161    0.488940
N     -2.016637    0.228087    0.296281
C     -4.549671    0.695668    0.733469
H     -4.834769    0.307243    1.716631
H     -5.159377    0.207572    -0.033845
H     -4.738199    1.773803    0.706712
C     0.462277    0.402076    3.373519
N     0.271454    0.217402    2.246307
C     0.702668    0.633711    4.793761
H     -0.244190    0.612288    5.342348
H     1.175133    1.610160    4.939567
H     1.361983    -0.142976    5.193805
O     -0.411973    -0.261010    -2.179548
H     -1.325396    -0.385340    -2.485774
H     0.116180    -0.919139    -2.659965
