13

Co     -0.000860    -0.000452    0.014244
N     -0.445937    1.520859    1.534072
N     -0.686743    2.283702    2.295308
N     2.123434    0.368589    0.383867
N     3.198125    0.547780    0.563619
N     0.447655    -1.521014    -1.505669
N     0.688929    -2.283296    -2.267314
N     -2.124521    -0.367691    -0.355285
N     -3.199287    -0.547067    -0.534412
N     -0.002339    -1.565860    1.580486
N     -0.003160    -2.346266    2.361845
N     0.001964    1.565446    -1.553392
N     0.002716    2.346179    -2.334422
