25
03/24/2023 16:57, XYZ structure generated by mol3D Class, molSimplify
Co     0.014171    -0.030126    0.106045
P     0.344456    2.227071    0.496942
H     -0.768061    3.081350    0.312525
N     1.475101    3.180620    0.976798
H     2.418720    2.859994    1.205547
P     2.567789    -0.441309    0.482332
H     3.415803    0.473831    -0.200855
N     3.610323    -1.289147    1.297816
H     3.262077    -2.045008    1.896065
P     -0.317003    -2.286952    -0.284801
H     0.795305    -3.141599    -0.100778
N     -1.448148    -3.240026    -0.764251
H     -2.391802    -2.919384    -0.992761
P     -2.539752    0.381037    -0.270880
H     -3.388351    -0.533640    0.412208
N     -3.581435    1.227523    -1.088876
H     -3.232569    1.982822    -1.687469
P     -0.377932    -0.373469    2.355849
H     0.700409    -0.850011    3.137625
N     -1.535597    -0.202601    3.379989
H     -2.463134    0.141908    3.122157
P     0.406495    0.314247    -2.143590
H     -0.670536    0.794903    -2.924655
N     1.563904    0.142267    -3.167868
H     2.490470    -0.205071    -2.910314
