31

Co     -0.057390    0.128133    -0.102502
N     0.295156    2.264182    0.475108
H     -0.218823    2.340627    1.363613
H     0.045866    3.051362    -0.130226
O     1.692015    2.358752    0.771644
H     1.857176    3.226054    1.193082
N     2.162835    -0.093856    -0.445535
H     2.680267    -0.533809    0.320803
H     2.528887    0.858199    -0.545251
O     2.433187    -0.848035    -1.626407
H     3.393503    -0.818462    -1.810618
N     -0.296378    -2.048334    -0.507487
H     0.486267    -2.649831    -0.235294
H     -0.379487    -2.073927    -1.532806
O     -1.484769    -2.571739    0.079069
H     -1.618232    -3.488614    -0.232119
N     -2.259112    0.207152    0.297892
H     -2.870507    -0.181796    -0.428141
H     -2.649708    1.132434    0.493995
O     -2.602363    -0.515243    1.501083
H     -2.342369    -1.439134    1.282485
N     0.250543    -0.020413    2.099571
H     1.159032    0.395079    2.321733
H     0.230863    -0.910721    2.608708
O     -0.646802    0.868630    2.796597
H     -1.518820    0.421179    2.685954
N     -0.314566    0.413338    -2.310974
H     0.157984    1.193476    -2.782325
H     -1.293629    0.515146    -2.589445
O     0.067103    -0.779234    -3.030079
H     1.030251    -0.850465    -2.840927
