24

Co     -0.012509    -0.006069    0.121906
P     -0.414088    2.319482    -0.088688
H     -1.660333    2.709454    -0.617749
H     -0.358875    3.137201    1.057378
H     0.439921    3.033675    -0.951808
P     2.264669    0.364165    -0.253032
H     2.831829    1.544507    0.266556
H     3.175750    -0.588298    0.244498
H     2.695702    0.448615    -1.592988
P     0.324209    -2.333384    -0.148223
H     1.326614    -2.735115    -1.053188
H     0.677301    -3.103341    0.977713
H     -0.755817    -3.090617    -0.643302
P     -2.296832    -0.368941    0.450263
H     -2.693046    -1.561592    1.087090
H     -3.002259    0.572435    1.225723
H     -3.118716    -0.413793    -0.694901
P     0.379466    0.017580    2.730132
H     1.699488    -0.015340    3.234017
H     -0.089899    1.106092    3.498808
H     -0.148070    -1.025785    3.523833
O     -0.380703    0.006365    -2.289863
H     -1.231616    -0.012129    -2.759438
H     0.290758    0.051914    -2.991148
