19

Co     -0.006275    -0.173052    -0.115135
O     0.094193    2.063397    -0.232501
H     -0.623039    2.625267    -0.592945
S     1.636489    2.661385    -0.889874
S     2.748923    1.516407    0.293430
O     2.170613    -0.051175    -0.267916
H     2.695151    -0.343226    -1.042312
O     0.074742    -2.328940    0.165507
H     0.851514    -2.902133    -0.003859
S     -0.501232    -2.568832    1.824137
S     0.699497    -1.322084    2.788538
O     0.067859    0.137967    1.979862
H     0.403717    0.956915    2.400176
O     -2.145538    -0.068094    -0.180061
H     -2.723339    0.596997    0.247267
S     -2.858665    -0.718071    -1.641572
S     -1.629078    0.236343    -2.916507
O     -0.127873    -0.429703    -2.292394
H     0.041569    -1.294577    -2.720869
