38

Co     -0.015670    -0.002196    0.313611
C     0.012832    0.033576    -2.219597
O     0.024796    0.071351    -3.349563
C     -0.190800    2.175749    0.095113
N     -0.300716    3.324968    -0.035363
C     -0.438586    4.739464    -0.204544
H     0.409685    5.113986    -0.782404
H     -0.460747    5.216291    0.778324
H     -1.369848    4.946157    -0.736980
C     2.168276    0.215574    0.126239
N     3.325378    0.265923    0.032617
C     4.750997    0.314276    -0.085659
H     5.090428    -0.558552    -0.648544
H     5.193686    0.305490    0.913477
H     5.036004    1.228775    -0.610914
C     0.182981    -2.180762    0.087545
N     0.317241    -3.327027    -0.047255
C     0.497178    -4.737058    -0.215132
H     -0.345438    -5.141472    -0.780902
H     0.545342    -5.209818    0.768765
H     1.429264    -4.914092    -0.757110
C     -2.186356    -0.231823    0.069157
N     -3.339092    -0.284434    -0.067130
C     -4.759881    -0.334315    -0.235332
H     -5.009314    -1.124048    -0.947850
H     -5.108278    0.629725    -0.613459
H     -5.225134    -0.543861    0.730771
C     -0.015935    0.002581    5.221013
C     0.771532    0.906823    4.506447
C     0.735537    0.873054    3.118319
N     -0.027866    -0.001713    2.430751
C     -0.787231    -0.873704    3.126675
C     -0.810694    -0.903029    4.515794
H     -0.009273    0.003331    6.306695
H     1.403276    1.628332    5.013200
H     1.330925    1.561271    2.527321
H     -1.387947    -1.562788    2.541793
H     -1.437145    -1.622721    5.031840
