37

Co     -0.057476    0.247987    -0.140768
P     0.184615    2.804430    0.242557
H     -0.010068    3.154097    1.594259
H     -0.701096    3.759782    -0.323504
N     1.801299    3.315428    0.031481
H     2.042246    4.236526    0.393644
H     2.156724    3.221173    -0.915913
P     2.496508    0.020635    0.481845
H     2.819565    0.859365    1.564908
H     3.575901    0.396725    -0.365463
N     2.846416    -1.510429    1.182998
H     3.761007    -1.601519    1.624712
H     2.704974    -2.295466    0.551907
P     -0.389404    -2.272974    -0.651713
H     0.703811    -3.144503    -0.933402
H     -1.067419    -2.445859    -1.873941
N     -1.472115    -2.979532    0.439741
H     -1.151729    -2.931237    1.408409
H     -1.841885    -3.899974    0.212012
P     -2.636374    0.532934    -0.401061
H     -3.333040    0.217310    0.780495
H     -3.309398    -0.382864    -1.257969
N     -3.204464    2.114510    -0.669012
H     -4.208515    2.263394    -0.589326
H     -2.852862    2.574478    -1.503224
P     -0.479056    -0.245392    2.401506
H     -1.824480    -0.345692    2.809080
H     -0.070523    0.732997    3.350227
N     0.127744    -1.772347    2.861342
H     1.096081    -1.909326    2.560000
H     0.009014    -2.039230    3.837529
P     0.443958    0.552117    -2.673303
H     0.984287    1.764553    -3.195174
H     -0.736810    0.552699    -3.446322
N     1.242114    -0.782723    -3.361809
H     2.147986    -1.006376    -2.961837
H     1.286653    -0.831553    -4.377739
