13

Co     -0.025203    -0.019184    0.141826
C     0.275909    1.873321    0.280988
O     0.464505    2.986387    0.309093
C     2.283325    -0.392607    0.413949
O     3.400691    -0.544859    0.367644
C     -0.254020    -1.849963    -0.399678
O     -0.383869    -2.909045    -0.769265
C     -2.302926    0.371823    -0.279370
O     -3.344297    0.571437    -0.666159
C     -0.354301    -0.317414    2.028283
O     -0.548103    -0.491750    3.127039
C     0.295853    0.271923    -1.701711
N     0.492442    0.449963    -2.836882
