15

Co     0.084539    -0.220246    0.090730
S     -0.405560    2.402638    0.101685
H     0.384472    2.850831    -0.895387
H     0.401581    2.839447    1.090031
S     2.760947    -0.076630    0.042509
H     3.044650    0.642342    1.148773
H     2.988080    0.941045    -0.812244
S     0.576989    -2.842436    0.127801
H     -0.321105    -3.282247    1.032087
H     -0.113017    -3.289349    -0.942174
S     -2.593099    -0.369892    0.049312
H     -2.871395    -1.144220    1.118647
H     -2.821943    -1.343378    -0.855296
I     0.068879    -0.240101    2.821681
I     0.097688    -0.199937    -2.638137
