35

Co     0.053772    -0.057206    0.136285
C     0.579382    3.163527    -0.382510
N     0.404380    2.033779    -0.201049
C     0.799791    4.585360    -0.611182
H     0.881626    4.782587    -1.684999
H     1.725039    4.902693    -0.119437
H     -0.036638    5.162860    -0.204728
C     3.296436    -0.505527    0.565526
N     2.161666    -0.346471    0.400360
C     4.724792    -0.704436    0.772157
H     5.241649    0.260418    0.753967
H     5.131903    -1.343027    -0.018381
H     4.896987    -1.182971    1.741665
C     -0.509252    -3.284084    0.567559
N     -0.313275    -2.156003    0.396539
C     -0.756123    -4.703796    0.781771
H     0.163752    -5.196109    1.113425
H     -1.092690    -5.168841    -0.150536
H     -1.528339    -4.836919    1.546152
C     -3.174954    0.420588    -0.392345
N     -2.045636    0.247092    -0.207138
C     -4.596601    0.636463    -0.627038
H     -5.179417    -0.139569    -0.120422
H     -4.807596    0.596372    -1.700574
H     -4.894953    1.616241    -0.240638
C     -0.417458    0.503208    3.372582
N     -0.256767    0.312569    2.242521
C     -0.619082    0.745304    4.795226
H     -1.569475    0.308585    5.118097
H     -0.636199    1.822243    4.990929
H     0.195404    0.292063    5.369327
P     0.455456    -0.583353    -2.454443
H     1.164908    0.338188    -3.255278
H     1.192610    -1.743380    -2.777277
H     -0.645579    -0.796361    -3.312449
