25
03/24/2023 16:57, XYZ structure generated by mol3D Class, molSimplify
Co     -0.001681    0.000066    0.000339
N     -0.206534    2.030677    0.227160
H     -1.162544    2.340551    0.037140
H     -0.002423    2.362879    1.172432
H     0.398062    2.583600    -0.385390
N     2.385172    0.259476    -0.281754
H     2.716613    1.205938    -0.078622
H     2.976124    -0.340695    0.300081
H     2.713451    0.083710    -1.234748
N     0.195576    -2.030911    -0.232098
H     1.168136    -2.333477    -0.138155
H     -0.339145    -2.582644    0.443284
H     -0.104428    -2.372931    -1.147867
N     -2.384652    -0.260524    0.287164
H     -2.706018    -1.219453    0.131969
H     -2.717557    -0.039066    1.228923
H     -2.979646    0.303723    -0.325657
N     0.305222    -0.192411    2.024767
H     -0.464763    0.162205    2.597191
H     0.438931    -1.159653    2.327447
H     1.142398    0.303531    2.340334
N     -0.295420    0.194672    -2.025434
H     -1.152600    -0.264907    -2.342443
H     -0.382592    1.165088    -2.335040
H     0.460188    -0.199402    -2.591053
