31

Co     0.001565    -0.001863    0.000327
C     0.513363    3.224198    -0.502613
N     0.361502    2.099635    -0.271059
C     0.704347    4.638203    -0.795508
H     0.578854    4.814064    -1.869044
H     1.710819    4.949393    -0.497584
H     -0.031675    5.235849    -0.247922
C     3.225852    -0.471012    0.550509
N     2.110803    -0.284182    0.299565
C     4.627966    -0.705318    0.868014
H     5.181065    0.238970    0.836475
H     5.064581    -1.399918    0.142965
H     4.713388    -1.136087    1.871108
C     -0.516281    -3.227270    0.499909
N     -0.359930    -2.103481    0.267585
C     -0.714014    -4.640349    0.792733
H     0.228098    -5.087544    1.125981
H     -1.059923    -5.162825    -0.105220
H     -1.463069    -4.755245    1.582997
C     -3.222490    0.471509    -0.547774
N     -2.108178    0.281515    -0.295956
C     -4.623684    0.710681    -0.865680
H     -5.259575    0.032085    -0.287845
H     -4.795875    0.538581    -1.933305
H     -4.890311    1.744468    -0.623332
O     -0.233956    0.247642    2.088672
H     0.094368    1.071889    2.486690
H     -1.123392    0.102731    2.454470
O     0.235415    -0.251933    -2.088407
H     -0.071820    -1.087911    -2.478726
H     1.120124    -0.087225    -2.457297
