59

Co     0.037467    0.000189    -0.005180
O     0.059430    2.121789    -0.019239
C     -1.031468    2.976897    0.172492
C     -0.616339    4.259728    0.080957
C     0.799920    4.234071    -0.178774
C     1.175991    2.937532    -0.233978
H     -1.974085    2.489991    0.357838
H     -1.239323    5.137539    0.185678
H     2.105018    2.420227    -0.402389
H     1.451407    5.087442    -0.308964
O     2.406093    0.005357    0.062439
C     3.174829    -0.199209    1.207481
C     4.490514    -0.160219    0.895840
C     4.579112    0.085895    -0.518434
C     3.312063    0.176285    -0.983466
H     2.618796    -0.346478    2.117916
H     5.313601    -0.290440    1.584736
H     2.879292    0.343338    -1.955725
H     5.481674    0.180943    -1.106529
O     0.048840    -2.120787    0.008499
C     1.138770    -2.942521    0.314448
C     0.757060    -4.236842    0.247495
C     -0.636385    -4.254216    -0.114535
C     -1.032503    -2.969403    -0.250931
H     2.055384    -2.428976    0.548906
H     1.389194    -5.094072    0.434911
H     -1.956798    -2.477881    -0.502840
H     -1.258370    -5.128096    -0.251489
O     -2.368345    -0.003437    -0.066971
C     -3.263158    0.257052    0.969109
C     -4.535755    0.148625    0.522987
C     -4.462783    -0.201150    -0.869643
C     -3.150030    -0.280494    -1.187007
H     -2.822765    0.482603    1.925851
H     -5.431643    0.296496    1.110384
H     -2.606400    -0.498780    -2.090606
H     -5.292970    -0.369209    -1.541498
C     -0.334192    0.087176    4.796580
C     -0.758312    -1.025410    4.069699
C     -0.626371    -1.022642    2.686042
N     -0.098939    0.023249    2.005610
C     0.319805    1.097279    2.718044
C     0.217288    1.164174    4.102019
H     -0.430082    0.114660    5.877685
H     -1.189101    -1.891209    4.561004
H     -0.960374    -1.868267    2.100681
H     0.755736    1.913570    2.158880
H     0.567122    2.051931    4.617846
C     0.073749    -0.042029    -4.815976
C     0.611925    -1.107319    -4.093208
C     0.608647    -1.055590    -2.704298
N     0.101055    -0.006001    -2.015312
C     -0.416531    1.027184    -2.722189
C     -0.447980    1.043080    -4.111339
H     0.059969    -0.057228    -5.901582
H     1.029334    -1.975133    -4.592166
H     1.027218    -1.864717    -2.121217
H     -0.825834    1.850682    -2.153157
H     -0.879952    1.896304    -4.623476
