25

Co     0.000146    0.007873    -0.000028
O     -0.000053    2.153776    0.000009
H     0.599362    2.730057    -0.503386
H     -0.599353    2.730154    0.503434
O     2.170966    -0.015454    -0.041336
H     2.766929    0.001489    -0.808854
H     2.736863    -0.008091    0.749236
O     -0.000050    -2.141238    0.000004
H     0.619519    -2.717201    -0.478644
H     -0.619504    -2.717294    0.478694
O     -2.171081    -0.015487    0.041287
H     -2.767054    0.001501    0.808797
H     -2.737077    -0.008112    -0.749220
C     -0.039254    0.007029    2.160058
N     -0.030377    0.004519    3.320772
C     -0.006546    -0.001641    4.754053
H     0.607301    -0.839517    5.092860
H     -1.027770    -0.112563    5.126215
H     0.419033    0.941190    5.105709
C     0.039973    0.007025    -2.159890
N     0.030069    0.004518    -3.320548
C     0.006473    -0.001643    -4.754201
H     -0.607425    -0.839635    -5.093146
H     1.028047    -0.112593    -5.125937
H     -0.419137    0.941335    -5.105934
