31

Co     -0.006599    -0.036953    -0.007349
P     -0.203349    2.546300    0.352389
H     -1.005245    3.250649    -0.575583
H     -0.841236    3.016602    1.525143
P     1.632954    3.863015    0.330720
H     2.072835    3.438618    1.614874
P     3.155807    2.645618    -0.810329
H     2.470284    2.726762    -2.054310
P     2.512882    0.517931    -0.425665
H     3.168845    -0.143672    -1.491215
H     3.430488    0.172427    0.592733
P     0.368331    -2.629611    -0.265437
H     -0.619718    -3.432356    -0.882718
H     1.465093    -3.054909    -1.049408
P     0.712802    -3.837345    1.605153
H     -0.580412    -3.520165    2.118657
P     1.934159    -2.241323    2.657534
H     1.621196    -2.669041    3.974367
P     0.527136    -0.502953    2.511056
H     -0.529460    -0.757900    3.416942
H     1.208026    0.487480    3.255235
P     -2.569144    -0.440300    0.276300
H     -3.226948    0.543506    1.050064
H     -3.026481    -1.566729    1.001401
P     -3.962597    -0.514448    -1.499864
H     -3.525851    -1.805258    -1.908184
P     -2.825985    0.590822    -3.110679
H     -2.914459    1.857601    -2.469003
P     -0.666750    0.287733    -2.524016
H     -0.057234    1.298062    -3.306657
H     -0.350590    -0.802047    -3.367888
