17

Co     0.000474    -0.001181    0.002634
C     0.313063    0.261418    1.970462
O     0.481782    0.381435    3.077010
C     -0.307931    -0.261650    -1.961900
O     -0.474047    -0.376884    -3.069302
O     0.270579    1.939819    -0.404020
H     1.209137    2.206925    -0.439397
H     -0.250086    2.682746    -0.044950
O     2.203519    -0.059707    -0.340952
H     2.646234    -0.253362    -1.187326
H     2.860328    -0.272395    0.346815
O     -0.267182    -1.942567    0.402786
H     0.240919    -2.677940    0.011718
H     -1.206665    -2.206222    0.446446
O     -2.206502    0.055805    0.348141
H     -2.652265    0.270970    1.187993
H     -2.861356    0.252790    -0.346158
