42

Co     -0.000241    0.000628    -0.091856
C     0.006130    1.937740    -0.072628
N     0.007906    3.098925    -0.078128
C     0.010201    4.530509    -0.067657
H     0.842626    4.893117    -0.675150
H     0.125570    4.878517    0.961775
H     -0.934811    4.894652    -0.477551
C     1.928134    -0.002571    -0.028352
N     3.088107    -0.002014    -0.003253
C     4.518649    -0.001552    0.028503
H     4.890337    -0.834987    -0.572802
H     4.851226    -0.111774    1.063341
H     4.885701    0.942572    -0.381552
C     -0.006425    -1.936605    -0.072825
N     -0.007992    -3.097804    -0.078310
C     -0.009878    -4.529395    -0.067630
H     -0.842373    -4.892374    -0.674809
H     -0.124898    -4.877265    0.961891
H     0.935150    -4.893339    -0.477669
C     -1.928539    0.003948    -0.026297
N     -3.088567    0.003174    -0.000840
C     -4.519137    0.000162    0.027112
H     -4.891934    -0.611050    -0.798705
H     -4.880929    1.025700    -0.079431
H     -4.856142    -0.415659    0.979610
C     -0.001307    0.000899    -2.336897
N     -0.001241    0.000629    -3.500915
C     0.000268    -0.000845    -4.931697
H     -0.607279    -0.834495    -5.291248
H     1.026318    -0.111326    -5.289924
H     -0.417014    0.941742    -5.293333
C     -0.000176    0.000351    5.199542
C     -0.118681    1.192306    4.485476
C     -0.115080    1.142003    3.093988
N     0.000819    0.000291    2.390481
C     0.116138    -1.141424    3.094109
C     0.118728    -1.191659    4.485607
H     -0.000545    0.000385    6.285081
H     -0.212649    2.146814    4.993476
H     -0.208592    2.054104    2.513807
H     0.209834    -2.053578    2.514014
H     0.211997    -2.146169    4.993742
