30

Co     -0.010743    0.010733    0.156837
C     -0.054752    0.036048    -2.275980
O     -0.088915    0.055632    -3.404675
O     -0.003862    0.007914    2.302794
H     0.596864    0.513281    2.875145
H     -0.504829    -0.598461    2.873077
C     0.052222    2.188045    0.056255
N     0.052583    3.348327    0.017844
C     0.038991    4.779748    -0.020196
H     0.870003    5.129792    -0.637291
H     0.144133    5.160983    0.998581
H     -0.909477    5.113957    -0.447366
C     2.176540    0.008494    0.082521
N     3.337062    0.005686    0.047372
C     4.768251    0.002226    0.001216
H     5.102108    -0.831900    -0.620328
H     5.156544    -0.111605    1.016177
H     5.114156    0.946054    -0.426507
C     -0.035350    -2.180773    0.078695
N     -0.029669    -3.341268    0.041826
C     -0.016384    -4.772303    -0.002436
H     -0.846759    -5.119320    -0.621321
H     -0.122289    -5.160028    1.013398
H     0.931276    -5.106550    -0.430561
C     -2.188083    -0.021952    0.080113
N     -3.348315    -0.020542    0.040805
C     -4.779484    -0.012124    -0.014698
H     -5.104040    -0.620641    -0.862557
H     -5.123328    1.017489    -0.140654
H     -5.174455    -0.426943    0.916238
