31

Co     -0.009497    -0.048328    -0.014142
N     -0.005577    1.894767    -0.021792
C     -0.000489    3.050399    -0.018890
C     0.004050    4.505930    -0.012847
H     -0.987321    4.881251    -0.286773
H     0.262278    4.871760    0.986471
H     0.738169    4.878799    -0.734589
N     1.935144    -0.038062    -0.013559
C     3.090720    0.002564    -0.014904
C     4.545933    0.054401    -0.012893
H     4.891680    0.839515    -0.693637
H     4.907380    0.272867    0.997563
H     4.954554    -0.907531    -0.339328
N     -0.011171    -1.986632    -0.004901
C     -0.013096    -3.142695    0.001443
C     -0.009646    -4.598785    0.007237
H     0.813656    -4.969872    -0.612099
H     0.118524    -4.967858    1.030302
H     -0.956196    -4.976532    -0.393110
N     -1.953779    -0.038651    -0.010530
C     -3.109579    -0.003563    -0.004529
C     -4.565090    0.045858    -0.000836
H     -4.967325    -0.758540    -0.625473
H     -4.941190    -0.072045    1.020983
H     -4.903635    1.009120    -0.396802
S     -0.000426    0.166761    2.780014
H     0.978722    -0.661059    3.200330
H     -0.986121    -0.645548    3.214126
S     0.021241    0.126230    -2.812813
H     -1.028884    -0.613901    -3.227195
H     0.931046    -0.782271    -3.221992
