35

Co     0.062932    -0.065601    0.093034
C     0.575768    2.966422    -0.385703
N     0.389295    1.835707    -0.232368
C     0.808825    4.391266    -0.580073
H     0.694901    4.646900    -1.638589
H     1.822168    4.650915    -0.257083
H     0.086963    4.969398    0.005906
C     3.416507    -0.573646    0.630171
N     2.287626    -0.405609    0.430544
C     4.838327    -0.783984    0.880748
H     5.365841    0.175003    0.871213
H     5.264109    -1.430659    0.106996
H     4.980469    -1.257730    1.857142
C     -0.449825    -3.097181    0.581877
N     -0.257453    -1.976674    0.372659
C     -0.692450    -4.509353    0.845096
H     0.230848    -4.988750    1.186195
H     -1.036495    -5.006206    -0.067868
H     -1.458677    -4.616925    1.619638
C     -3.299471    0.437067    -0.441973
N     -2.164237    0.264884    -0.285462
C     -4.728765    0.654749    -0.637412
H     -5.299677    0.061940    0.084191
H     -5.018910    0.356710    -1.649893
H     -4.968703    1.713337    -0.496473
C     -0.365117    0.458972    3.145629
N     -0.203361    0.267491    2.017234
C     -0.570673    0.699391    4.568218
H     -1.634136    0.607813    4.811245
H     -0.230205    1.706441    4.829519
H     -0.005356    -0.031435    5.155347
P     0.340241    -0.452553    -2.202910
H     1.654057    -0.411539    -2.706045
H     -0.103623    -1.686317    -2.714188
H     -0.309011    0.442475    -3.073429
