33

Co     0.000692    0.001780    0.049427
C     0.531462    3.025422    0.556565
N     0.332262    1.901086    0.368150
C     0.781276    4.441078    0.792748
H     0.752691    4.987989    -0.155460
H     1.766344    4.574272    1.251920
H     0.016411    4.847739    1.462532
C     3.362618    -0.532402    -0.415706
N     2.228320    -0.352202    -0.257921
C     4.789922    -0.758351    -0.615662
H     5.325174    0.196388    -0.602490
H     4.960112    -1.247586    -1.580018
H     5.183513    -1.397340    0.181263
C     -0.514955    -3.024598    -0.455659
N     -0.325821    -1.898574    -0.268010
C     -0.751456    -4.442961    -0.689805
H     0.193960    -4.992228    -0.631701
H     -1.189508    -4.589899    -1.682506
H     -1.440236    -4.835705    0.065419
C     -3.370482    0.513334    0.497326
N     -2.232752    0.347462    0.347811
C     -4.801764    0.721852    0.687154
H     -5.214573    -0.070395    1.319829
H     -5.313983    0.707062    -0.280170
H     -4.978667    1.689092    1.168158
P     0.295718    -0.399972    2.363049
H     1.453641    0.141922    2.952676
H     -0.696468    0.088917    3.234427
H     0.386767    -1.737215    2.794359
P     -0.318876    0.429061    -2.256678
H     0.785266    0.289026    -3.119497
H     -1.271204    -0.368876    -2.918901
H     -0.768607    1.714690    -2.613409
