21

Co     0.165887    0.209463    -0.249134
S     0.460027    2.821478    -0.770473
H     1.791568    2.947375    -0.587155
H     0.165960    3.228528    0.481964
S     2.791964    -0.237885    -0.665774
H     3.109517    -0.426063    0.632002
H     2.875365    -1.547678    -0.980847
S     -0.105978    -2.480723    0.171370
H     -0.269210    -2.410673    1.508272
H     -1.385786    -2.834680    -0.071441
S     -2.419633    0.887281    0.196874
H     -3.257005    0.051236    -0.452878
H     -2.572324    0.290979    1.395632
N     0.604313    0.565559    2.851256
C     0.438000    0.442739    1.700970
N     -0.150306    -0.095378    -2.321013
C     -0.286603    -0.183287    -3.467130
C     -0.456322    -0.288301    -4.909633
H     0.070326    -1.171522    -5.284750
H     -1.520030    -0.373688    -5.153687
H     -0.049733    0.605248    -5.394344
