22

Co     0.019076    0.000804    -0.153649
N     0.001059    2.056648    0.105865
H     0.053578    1.946906    1.127804
H     -0.842564    2.589063    -0.108622
H     0.793871    2.620163    -0.201956
N     2.300283    0.004426    -0.546818
H     2.814716    0.819475    -0.211709
H     2.399072    0.001736    -1.562565
H     2.818352    -0.806353    -0.206990
N     0.008789    -2.055497    0.106550
H     -0.829128    -2.594221    -0.114453
H     0.053563    -1.945028    1.128785
H     0.807979    -2.613385    -0.194950
N     -2.267399    -0.005027    0.345815
H     -2.865807    0.806671    0.189948
H     -2.029201    -0.005571    1.341833
H     -2.861653    -0.819347    0.187823
O     0.123817    0.001240    1.729435
H     1.031322    -0.000574    2.074337
O     -0.177774    -0.000843    -2.221288
H     -0.677012    -0.771815    -2.538275
H     -0.674943    0.770529    -2.540562
