27

Co     -0.000410    0.004073    -0.022591
C     0.396523    2.119586    0.291270
N     0.602950    3.253302    0.478130
C     0.855066    4.628252    0.719795
H     1.576818    5.005000    -0.010558
H     1.257464    4.757285    1.728649
H     -0.075970    5.194661    0.627250
C     2.132213    -0.254074    -0.365707
N     3.279814    -0.393316    -0.528418
C     4.676200    -0.564884    -0.710717
H     4.857355    -1.320502    -1.480404
H     5.133396    -0.887012    0.229250
H     5.125421    0.381203    -1.026005
C     -0.396578    -2.113982    -0.316760
N     -0.603891    -3.251783    -0.475655
C     -0.854979    -4.634810    -0.666884
H     -1.849673    -4.772180    -1.100493
H     -0.803012    -5.155463    0.293611
H     -0.107850    -5.053981    -1.346843
C     -2.132861    0.261874    0.323563
N     -3.280135    0.399057    0.490295
C     -4.676185    0.564270    0.680476
H     -4.869719    1.519554    1.176683
H     -5.061817    -0.247157    1.304317
H     -5.184208    0.551287    -0.288091
Cl     0.369060    -0.387488    2.358235
Cl     -0.369378    0.394168    -2.399483
