59

Co     -0.015585    -0.039129    -0.182932
O     -0.020892    -0.044732    2.130180
H     0.741146    -0.137191    2.726909
H     -0.808967    0.030724    2.694344
C     -0.046560    5.059366    -0.098313
C     -0.284920    4.370892    -1.287429
C     -0.280914    2.979236    -1.270264
N     -0.057279    2.253720    -0.154676
C     0.172152    2.931744    0.990878
C     0.185843    4.321171    1.063098
H     -0.043654    6.144882    -0.076398
H     -0.472043    4.897776    -2.217413
H     -0.462360    2.412183    -2.173917
H     0.344257    2.321863    1.869780
H     0.374196    4.810393    2.012914
C     4.968203    0.167336    0.557062
C     4.242078    -0.975456    0.892197
C     2.874027    -0.999370    0.643090
N     2.204109    0.035065    0.089928
C     2.918041    1.136026    -0.229294
C     4.288592    1.242280    -0.015843
H     6.037469    0.216986    0.737930
H     4.722628    -1.840915    1.336358
H     2.282679    -1.873346    0.885403
H     2.359437    1.953957    -0.667253
H     4.806913    2.153391    -0.294395
C     0.159188    -5.085313    -0.156002
C     -0.106819    -4.375439    1.016555
C     -0.135811    -2.986191    0.967831
N     0.091623    -2.281779    -0.163232
C     0.360576    -2.978747    -1.286889
C     0.399850    -4.369404    -1.328238
H     0.176171    -6.170901    -0.154576
H     -0.293651    -4.886646    1.955239
H     -0.344443    -2.395186    1.851637
H     0.546060    -2.390407    -2.176079
H     0.611431    -4.873526    -2.265522
C     -5.025020    -0.106344    0.373191
C     -4.313541    1.078294    0.563250
C     -2.930637    1.066002    0.411469
N     -2.232411    -0.044537    0.087680
C     -2.933064    -1.186801    -0.091279
C     -4.315920    -1.260614    0.039613
H     -6.105444    -0.128745    0.480512
H     -4.817660    2.003553    0.821916
H     -2.348407    1.967977    0.545147
H     -2.350913    -2.060648    -0.354336
H     -4.821180    -2.207580    -0.118675
C     -0.040712    0.014991    -5.212692
C     1.167200    -0.000766    -4.513595
C     1.138985    -0.005823    -3.122805
N     -0.008843    0.008819    -2.411095
C     -1.172065    0.029170    -3.097221
C     -1.232348    0.030696    -4.486914
H     -0.052530    0.013045    -6.298344
H     2.119382    -0.011710    -5.033557
H     2.056226    -0.029244    -2.546356
H     -2.075329    0.050571    -2.499475
H     -2.196819    0.044949    -4.983193
