55
03/24/2023 16:57, XYZ structure generated by mol3D Class, molSimplify
Co     0.000093    -0.000703    -0.000621
N     0.257070    2.206850    0.320609
C     -0.142723    4.409661    0.595839
N     1.214591    4.171166    0.625652
C     1.413538    2.841463    0.459353
C     -0.722374    3.183632    0.405442
H     2.391450    2.385371    0.437509
H     1.938279    4.868234    0.747674
H     -1.769573    2.937191    0.327265
H     -0.558365    5.399287    0.708443
N     2.176231    -0.304571    0.312327
C     4.404069    -0.386229    -0.019358
N     4.104537    -0.789783    1.264166
C     2.762350    -0.725715    1.426069
C     3.199482    -0.088812    -0.597839
H     2.260244    -0.990379    2.343714
H     4.771445    -1.086270    1.965537
H     3.001787    0.263836    -1.597654
H     5.415752    -0.350506    -0.393407
N     -0.257146    -2.208263    -0.321631
C     0.142304    -4.411018    -0.597901
N     -1.215011    -4.172420    -0.626691
C     -1.413745    -2.842757    -0.459809
C     0.722161    -3.185090    -0.407485
H     -2.391610    -2.386607    -0.437152
H     -1.938834    -4.869397    -0.748444
H     1.769430    -2.938758    -0.329899
H     0.557802    -5.400636    -0.711120
N     -2.176273    0.303015    -0.313472
C     -4.403997    0.385969    0.018484
N     -4.104684    0.786767    -1.265953
C     -2.762544    0.721986    -1.427959
C     -3.199385    0.089419    0.597362
H     -2.260569    0.984672    -2.346238
H     -4.771658    1.082031    -1.967777
H     -3.001627    -0.261212    1.597869
H     -5.415608    0.351293    0.392823
N     -0.342763    -0.265317    2.141918
C     -0.665528    -1.202125    4.165742
N     -0.669953    0.173181    4.276414
C     -0.472108    0.698536    3.046912
C     -0.462837    -1.459787    2.837200
H     -0.435706    1.757994    2.847342
H     -0.803514    0.700866    5.130032
H     -0.395978    -2.413753    2.338981
H     -0.804868    -1.850816    5.016929
N     0.342819    0.264296    -2.142998
C     0.665417    1.201153    -4.166802
N     0.671084    -0.174163    -4.277336
C     0.473305    -0.699554    -3.047846
C     0.462072    1.458805    -2.838361
H     0.437749    -1.759022    -2.848151
H     0.805373    -0.701819    -5.130858
H     0.394190    2.412772    -2.340278
H     0.804449    1.849873    -5.018017
