27

Co     0.014933    -0.003878    0.011154
C     0.541467    3.379638    0.500923
N     0.425526    2.242496    0.325936
C     0.686336    4.815537    0.720636
H     0.336651    5.368649    -0.156607
H     1.736323    5.067086    0.899542
H     0.099398    5.125090    1.590967
C     3.405921    -0.477925    -0.486050
N     2.270294    -0.300095    -0.360481
C     4.840180    -0.701592    -0.641046
H     5.377565    0.250763    -0.596754
H     5.047040    -1.176066    -1.605323
H     5.209257    -1.350338    0.159331
C     -0.550908    -3.372061    -0.545755
N     -0.399313    -2.248461    -0.318426
C     -0.744788    -4.789336    -0.836990
H     0.207511    -5.251016    -1.115868
H     -1.448854    -4.910882    -1.666027
H     -1.141105    -5.305952    0.042616
C     -3.373019    0.464003    0.536140
N     -2.239379    0.290386    0.388564
C     -4.805099    0.680300    0.719325
H     -5.220645    -0.083755    1.383641
H     -5.320581    0.629223    -0.244670
H     -4.984894    1.664571    1.162798
F     0.300558    -0.293699    1.790096
F     -0.272283    0.286635    -1.768090
