17

Co     -0.063865    -0.041457    0.198057
S     -0.466399    2.516774    0.804586
H     0.736167    3.129567    0.829354
H     -0.516487    2.435304    -0.547667
S     2.592179    0.196330    -0.173427
H     3.203979    -0.856880    0.408364
H     3.047836    1.069059    0.750319
S     0.253666    -2.434974    -0.865273
H     -0.938522    -3.041363    -0.683120
H     -0.108839    -1.815326    -2.009169
S     -2.713304    -0.386842    0.499994
H     -3.194306    0.630868    1.245762
H     -2.904672    0.250855    -0.674007
S     0.124982    -1.072603    2.588362
H     1.439522    -1.107797    2.888732
H     -0.130187    -0.033578    3.411152
F     -0.354003    0.563885    -1.487307
