31

Co     0.038377    0.100187    0.012981
O     -0.314162    2.084967    -0.210710
H     0.259208    2.657761    -0.750863
H     -1.233226    2.327315    -0.426988
O     2.026042    0.328034    -0.262380
H     2.375742    0.526400    -1.150196
H     2.511128    0.878489    0.379642
O     0.192732    -1.897642    0.343248
H     0.808974    -2.428760    -0.193170
H     0.347624    -2.137298    1.278467
O     -1.939555    -0.091279    0.273329
H     -2.235781    0.041327    1.196597
H     -2.265234    -0.975910    0.014445
O     0.574506    0.548818    2.164777
C     -0.416480    1.164158    2.934250
C     -0.507324    0.557148    4.140749
C     0.474597    -0.496834    4.159683
C     1.104505    -0.472837    2.961459
H     -0.870835    2.038039    2.493119
H     -1.167039    0.841591    4.949476
H     1.969518    -0.979671    2.558596
H     0.694459    -1.161490    4.984736
O     -0.179193    -0.328769    -2.137599
C     -1.237788    0.123155    -2.928946
C     -0.958425    -0.086222    -4.233686
C     0.339543    -0.704815    -4.295284
C     0.779062    -0.835307    -3.023603
H     -2.084764    0.528321    -2.398179
H     -1.599608    0.155678    -5.070276
H     1.653512    -1.283072    -2.574858
H     0.860081    -1.021671    -5.188814
