19
03/24/2023 16:57, XYZ structure generated by mol3D Class, molSimplify
Co     0.008252    0.070061    0.032354
N     -0.388915    1.937673    0.342592
S     0.552377    3.071073    0.785927
H     1.816896    2.499465    0.781873
N     1.885003    0.506934    -0.215783
S     3.076828    -0.334815    -0.701376
H     2.553358    -1.604301    -0.914162
N     0.392844    -1.787882    -0.319620
S     -0.516872    -3.032018    -0.365045
H     -1.786943    -2.544204    -0.080476
N     -1.869360    -0.358187    0.234888
S     -3.107001    0.550354    0.359682
H     -2.593790    1.840879    0.335505
N     0.428604    -0.075310    2.192511
S     0.280992    -1.248000    3.173107
H     0.856361    -0.812698    4.354929
N     -0.330188    0.434256    -2.167592
S     -0.543583    1.042980    -3.669699
H     -0.681220    -0.131638    -4.348079
