25

Co     0.026409    -0.160342    -0.042281
O     0.331722    1.872647    0.156214
H     -0.118231    2.301036    0.905574
H     1.277268    2.095621    0.227649
O     2.187366    -0.225839    -0.338274
H     2.577944    -0.344244    -1.220876
H     2.788453    -0.662080    0.288800
O     -0.437723    -2.163487    -0.293668
H     -0.005889    -2.848814    0.244866
H     -0.489423    -2.508332    -1.202058
O     -2.037909    0.263989    0.387466
H     -2.556520    -0.484735    0.731148
H     -2.568335    0.629691    -0.341765
N     0.299419    -0.481544    1.897649
C     0.370614    -0.645347    3.042297
C     0.451358    -0.852868    4.480505
H     1.130693    -1.683319    4.701420
H     0.823047    0.055074    4.967854
H     -0.543261    -1.088790    4.874815
N     -0.255296    0.152701    -1.980964
C     -0.427445    0.462055    -3.084039
C     -0.645856    0.857287    -4.467156
H     -1.599489    0.453643    -4.824384
H     -0.668268    1.950592    -4.536958
H     0.163490    0.474007    -5.097962
