45

Co     -0.000705    -0.004974    0.205402
C     0.061351    1.920982    0.189273
N     0.095468    3.079940    0.222069
C     0.136959    4.509733    0.273249
H     0.884300    4.871702    -0.436923
H     0.402673    4.822072    1.286352
H     -0.847404    4.904195    0.010352
C     1.928117    -0.055585    0.035269
N     3.077592    -0.062062    -0.122537
C     4.491657    -0.049821    -0.345653
H     4.765673    -0.924184    -0.940445
H     5.007305    -0.080134    0.617162
H     4.757072    0.864372    -0.882141
C     -0.061687    -1.929965    0.190099
N     -0.095060    -3.088726    0.227378
C     -0.136552    -4.517871    0.286211
H     -0.884594    -4.883693    -0.420956
H     -0.401259    -4.824985    1.301057
H     0.847282    -4.913993    0.024528
C     -1.929388    0.049668    0.031295
N     -3.077772    0.062372    -0.134027
C     -4.489449    0.059347    -0.372255
H     -4.688646    -0.473177    -1.305535
H     -4.840869    1.090786    -0.448053
H     -4.991844    -0.444675    0.456870
O     -0.004840    -0.004036    -2.353891
C     0.693293    -0.861771    -3.182566
C     0.450106    -0.561080    -4.481140
C     -0.455528    0.555467    -4.481415
C     -0.701670    0.854518    -3.183007
H     1.292572    -1.609025    -2.687067
H     0.857200    -1.068467    -5.344615
H     -1.303966    1.599716    -2.688065
H     -0.860859    1.063731    -5.345205
C     0.002349    0.012860    5.259063
C     1.097904    0.496045    4.543381
C     1.054212    0.467659    3.153387
N     0.002099    -0.005828    2.459253
C     -1.048995    -0.472252    3.159645
C     -1.092121    -0.482513    4.550059
H     0.000900    0.023653    6.344254
H     1.973654    0.890062    5.048461
H     1.889411    0.839043    2.568288
H     -1.885666    -0.848931    2.579882
H     -1.967728    -0.869667    5.060742
