19
03/24/2023 16:57, XYZ structure generated by mol3D Class, molSimplify
Co     -0.025010    0.005535    0.014987
N     0.648296    2.064119    0.381018
H     0.071488    2.887271    0.620991
N     1.806697    2.265321    0.759210
N     2.718538    1.168580    0.400691
N     2.152799    0.071534    0.364770
H     2.853758    -0.658031    0.154402
N     -0.417834    -2.146065    0.051893
H     -0.661854    -2.772490    -0.732527
N     -0.732275    -2.695754    1.111392
N     -0.360579    -1.897353    2.303954
N     -0.289590    -0.687990    2.070865
H     -0.057644    -0.196914    2.949573
N     -2.075663    0.267720    -0.690109
H     -2.959400    0.047524    -0.202391
N     -2.303725    0.370943    -1.898590
N     -1.100726    0.750588    -2.680475
N     -0.046651    0.420949    -2.130949
H     0.740994    0.689393    -2.743067
