67
03/24/2023 16:57, XYZ structure generated by mol3D Class, molSimplify
Co     -0.053140    0.016089    0.026347
P     -0.425798    2.545441    -0.401485
C     -0.938751    5.554789    -1.052045
C     0.355461    5.050667    -1.224806
C     0.708684    3.727415    -0.969813
C     -1.913882    3.428249    -0.289286
C     -2.016375    4.780852    -0.606538
H     -1.116824    6.602271    -1.276684
H     1.127588    5.730528    -1.577500
H     1.739031    3.417286    -1.123775
H     -2.801425    2.894497    0.040561
H     -2.986793    5.261390    -0.506345
P     2.474307    0.458696    0.380859
C     5.517865    1.004726    0.799016
C     4.612069    1.582583    1.696049
C     3.232046    1.412812    1.614698
C     3.807056    -0.122067    -0.564805
C     5.132186    0.193423    -0.274364
H     6.577120    1.194942    0.944470
H     5.008639    2.196560    2.501253
H     2.595533    1.889326    2.355729
H     3.588906    -0.756669    -1.419769
H     5.910549    -0.211872    -0.916703
P     0.309049    -2.540655    0.435783
C     0.733044    -5.588804    0.965278
C     1.711065    -4.695485    1.415946
C     1.637907    -3.315797    1.235684
C     -0.726457    -3.860423    -0.003752
C     -0.424136    -5.188739    0.287761
H     0.879699    -6.648649    1.151087
H     2.576410    -5.101111    1.934952
H     2.443071    -2.691770    1.615170
H     -1.650591    -3.631871    -0.528150
H     -1.127348    -5.956911    -0.025573
P     -2.586333    -0.466748    -0.314067
C     -5.610976    -1.125582    -0.718110
C     -5.200659    -0.631733    0.525208
C     -3.880761    -0.304509    0.827857
C     -3.368457    -1.087702    -1.731996
C     -4.737068    -1.341791    -1.789393
H     -6.663378    -1.353559    -0.858866
H     -5.953713    -0.499066    1.298490
H     -3.643668    0.063811    1.822574
H     -2.759761    -1.274877    -2.612938
H     -5.150325    -1.727051    -2.718655
P     -0.493926    0.433651    2.554337
C     -0.736024    0.931971    5.627786
C     -0.723161    -0.390100    5.168976
C     -0.614987    -0.740169    3.825321
C     -0.529600    1.949659    3.396588
C     -0.644470    2.042996    4.782053
H     -0.822440    1.104871    6.696448
H     -0.800503    -1.188425    5.903393
H     -0.606378    -1.792692    3.554347
H     -0.475177    2.863785    2.811098
H     -0.665633    3.033040    5.231681
P     0.422581    -0.389003    -2.503714
C     1.212623    -0.797769    -5.498445
C     0.842810    0.485113    -5.079445
C     0.476010    0.793674    -3.771916
C     0.919837    -1.851579    -3.293586
C     1.248192    -1.906856    -4.646466
H     1.485647    -0.939858    -6.539913
H     0.842783    1.285318    -5.815888
H     0.201923    1.817058    -3.529951
H     0.971089    -2.762419    -2.702880
H     1.548211    -2.865202    -5.063994
