25

Co     0.044773    -0.046268    -0.115301
S     -0.416019    2.510945    -0.443147
H     -0.331508    2.685339    -1.784987
P     1.501750    3.349536    0.233833
H     1.384367    4.595903    -0.439104
P     2.775575    2.323037    -1.352944
H     4.031349    2.607721    -0.749647
S     2.583441    0.287232    -0.530796
H     3.066830    0.423582    0.726271
S     0.422951    -2.545846    0.372457
H     1.479763    -2.773732    -0.439516
P     1.551423    -2.596630    2.284969
H     1.083273    -3.870745    2.709796
P     0.143642    -1.461463    3.647376
H     -1.100227    -1.984734    3.201928
S     -0.128852    0.365829    2.469434
H     0.939681    1.051761    2.931456
S     -2.507471    -0.526912    0.245821
H     -3.125566    0.673183    0.293606
P     -3.541306    -1.342463    -1.508753
H     -2.965279    -2.623892    -1.314621
P     -2.301683    -0.826650    -3.330884
H     -2.653371    0.547391    -3.329475
S     -0.254530    -0.384011    -2.652960
H     0.310752    -1.563134    -2.989302
