18

Co     -0.029633    -0.026774    -0.008670
C     -0.350841    -0.298169    -1.943404
O     -0.547775    -0.443733    -3.043355
O     0.298343    1.961294    -0.191808
H     1.213022    2.166004    -0.464992
H     -0.296283    2.599071    -0.628347
O     2.172076    -0.068792    -0.310223
H     2.662433    -0.377065    -1.093772
H     2.771425    -0.214338    0.443444
O     -0.298482    -1.972662    0.462653
H     0.100440    -2.727877    -0.007913
H     -1.247071    -2.172660    0.587258
O     -2.178171    0.039583    0.424268
H     -2.412086    0.353514    1.316156
H     -2.947771    0.224369    -0.143566
O     0.176398    0.267518    1.945396
H     0.462572    1.130669    2.295184
H     0.451407    -0.439955    2.556015
