30

Co     0.000036    -0.000088    -0.067948
C     -0.000214    0.000088    -2.393195
O     0.000047    0.000112    -3.523402
O     -0.000044    -0.000966    2.331633
H     0.769980    0.035140    2.922440
H     -0.770742    -0.031222    2.921903
C     -0.001234    1.937555    -0.019735
N     -0.001369    3.096119    0.001278
C     0.000051    4.528677    0.010628
H     0.836483    4.884544    -0.595414
H     0.108654    4.878064    1.039954
H     -0.943370    4.886425    -0.408196
C     1.938331    0.000506    -0.025195
N     3.097118    0.000752    -0.006840
C     4.530059    -0.000433    0.000052
H     4.885857    -0.836581    -0.606254
H     4.879178    -0.110029    1.029368
H     4.887596    0.943336    -0.417934
C     0.001302    -1.937721    -0.019721
N     0.001411    -3.096097    0.001300
C     -0.000047    -4.528739    0.010670
H     -0.836530    -4.884538    -0.595346
H     -0.108651    -4.878078    1.040012
H     0.943414    -4.886462    -0.408086
C     -1.938166    -0.000650    -0.024442
N     -3.097037    -0.000637    -0.005452
C     -4.529925    0.000468    0.000015
H     -4.886178    -0.606183    -0.835807
H     -4.884295    1.028186    -0.106208
H     -4.881714    -0.421548    0.944248
