18

Co     0.059711    -0.017251    -0.166911
S     -0.427679    2.622504    -0.500382
H     0.765252    3.247454    -0.595480
H     -0.585854    2.912207    0.807683
S     2.663796    0.521556    -0.428450
H     3.290304    -0.663975    -0.275072
H     2.811847    0.868615    0.867809
S     0.205713    -2.755580    -0.209603
H     -0.635879    -2.944502    0.826655
H     1.307134    -2.942733    0.545458
S     -2.660682    -0.523972    -0.016690
H     -3.423995    0.025295    -0.988661
H     -3.024996    0.364882    0.926505
I     0.044222    0.060481    2.478038
N     -0.072563    -0.173796    -2.325392
H     -0.886947    0.326729    -2.686266
H     -0.166461    -1.141877    -2.638451
H     0.737083    0.213957    -2.813193
