25

Co     -0.258291    0.023308    -0.223119
S     -0.081707    2.389100    0.092460
H     -0.449615    2.577699    1.385014
O     1.565515    2.629438    0.224355
H     1.775931    3.550750    -0.033705
S     2.046637    -0.187192    -0.520424
H     2.493847    0.647740    0.447071
O     2.476941    -1.656782    0.117011
H     2.407464    -1.583338    1.102874
S     -0.628392    -2.245522    -0.748308
H     0.476000    -2.767115    -0.148103
O     -1.786184    -2.510410    0.442834
H     -2.247581    -3.354928    0.257616
S     -2.534165    0.231737    0.337382
H     -3.294819    -0.371785    -0.608915
O     -2.937747    1.840799    0.123178
H     -2.982849    2.088025    -0.821569
S     0.048755    -0.856094    2.524984
H     -0.226732    0.276827    3.219088
O     1.746394    -0.787744    2.609653
H     2.033183    -1.214164    3.442736
S     -0.167290    0.504524    -2.965493
H     -1.408643    0.362459    -3.497041
O     0.404584    -1.060522    -3.182704
H     0.892812    -1.099869    -4.029658
