23

Co     -0.011024    0.009016    0.099444
N     -0.256958    2.362840    0.391586
H     -1.164407    2.687849    0.728517
H     0.432083    2.967088    0.842856
H     -0.238899    2.599114    -0.602514
N     2.031345    0.271799    -0.182070
H     2.392449    1.138113    0.218774
H     2.648631    -0.480903    0.125462
H     2.143315    0.351504    -1.194005
N     0.227711    -2.319644    -0.352198
H     1.133360    -2.758881    -0.179908
H     -0.464206    -3.012789    -0.061315
H     0.143750    -2.248130    -1.368212
N     -2.065805    -0.206620    0.223989
H     -2.333377    -1.183417    0.102152
H     -2.533138    0.126323    1.068423
H     -2.471036    0.295450    -0.566946
N     0.214685    -0.296773    2.128332
H     -0.176286    0.465474    2.683020
H     -0.231771    -1.157112    2.447901
H     1.195630    -0.371265    2.398495
C     -0.243361    0.289085    -1.776287
N     -0.373687    0.473429    -2.923862
