25

Co     -0.010440    0.005423    0.005514
P     -0.407462    2.657682    0.339479
H     -1.713139    3.194631    0.362676
H     0.081407    3.246423    1.526603
H     0.171426    3.554535    -0.585376
P     2.642285    0.414475    0.402369
H     3.173963    1.721267    0.463452
H     3.220319    -0.098330    1.584748
H     3.554709    -0.137098    -0.524048
P     0.313561    -2.652904    -0.369208
H     1.598125    -3.239968    -0.391224
H     -0.309606    -3.548473    0.527562
H     -0.182621    -3.194566    -1.575491
P     -2.660763    -0.364597    -0.388544
H     -3.201799    -1.653220    -0.589430
H     -3.553403    0.086262    0.608779
H     -3.249967    0.284371    -1.496177
N     -0.242290    -0.283258    2.169405
H     -1.220936    -0.386867    2.446559
H     0.226190    -1.125134    2.513961
H     0.126435    0.484056    2.735994
N     0.365578    0.231740    -2.146293
H     -0.402918    -0.091455    -2.738803
H     0.519949    1.208415    -2.406780
H     1.193673    -0.271366    -2.473871
