13

Co     0.000771    0.000741    -0.013743
C     0.057535    2.265592    -0.006781
O     0.085945    3.373759    -0.216761
C     2.265589    0.057631    -0.006318
O     3.373788    0.086059    -0.216123
C     -0.056495    -2.264805    -0.005318
O     -0.085482    -3.372991    -0.215142
C     -2.264801    -0.056572    -0.005777
O     -3.372952    -0.085633    -0.215773
C     -0.000278    0.000231    2.321795
O     -0.001378    -0.000671    3.449564
C     -0.000518    -0.000954    -1.977292
N     -0.001724    -0.002385    -3.149662
