15

Co     -0.241690    -0.056553    -0.046363
S     -0.642505    2.322761    0.306630
H     0.043529    2.544185    1.446422
H     0.284169    2.882092    -0.498513
S     2.422598    0.427668    0.396972
H     2.838622    -0.451518    1.331274
H     3.094488    -0.157989    -0.614696
S     0.065077    -2.443953    -0.406741
H     0.803656    -2.797733    0.665191
H     1.098426    -2.464080    -1.273400
S     -2.844408    -0.456557    -0.465138
H     -3.365285    0.237935    0.566772
H     -3.098777    0.505632    -1.375521
Cl     -0.564325    -0.424696    2.205085
Cl     0.120911    0.321108    -2.289431
