25
03/24/2023 16:57, XYZ structure generated by mol3D Class, molSimplify
Co     -0.000910    -0.001353    0.001574
N     -0.257540    2.211198    0.335221
H     -1.244854    2.472037    0.390469
H     0.152784    2.549353    1.208823
H     0.132741    2.813115    -0.393622
N     2.210373    0.292889    -0.281870
H     2.502720    1.255279    -0.098125
H     2.801616    -0.283036    0.322984
H     2.530959    0.096122    -1.232675
N     0.206496    -2.214963    -0.375862
H     1.167454    -2.485511    -0.598972
H     -0.057502    -2.815785    0.408827
H     -0.353268    -2.550637    -1.163485
N     -2.210879    -0.319759    0.329039
H     -2.424500    -1.314421    0.428854
H     -2.596925    0.118316    1.168781
H     -2.811952    0.001301    -0.433961
N     0.315192    -0.251353    2.220005
H     -0.467613    0.082409    2.786990
H     0.446566    -1.225299    2.502622
H     1.134815    0.240588    2.583966
N     -0.256774    0.292164    -2.223067
H     -1.233694    0.379814    -2.512595
H     0.198868    1.132610    -2.586551
H     0.115855    -0.475053    -2.787407
