54

Co     0.042720    -0.018815    0.119900
C     0.087102    0.008161    -1.848684
N     0.101566    0.043882    -3.007333
C     0.116284    0.104164    -4.439818
H     -0.461422    -0.733914    -4.837013
H     1.150250    0.040254    -4.787330
H     -0.326044    1.051522    -4.757078
O     0.044164    2.062792    0.043070
C     -1.079170    2.899193    -0.011753
C     -0.682888    4.159476    -0.287515
C     0.751021    4.139781    -0.428636
C     1.159310    2.868357    -0.230896
H     -2.021663    2.419812    0.189231
H     -1.329808    5.021430    -0.377188
H     2.109924    2.364164    -0.220243
H     1.391487    4.983836    -0.646603
O     2.384768    -0.026980    0.165158
C     3.213373    0.203369    1.263292
C     4.509130    0.087818    0.894596
C     4.520946    -0.237366    -0.507541
C     3.231667    -0.297317    -0.908671
H     2.707881    0.429755    2.186739
H     5.369665    0.217660    1.535989
H     2.745546    -0.514002    -1.844806
H     5.389786    -0.404038    -1.129335
O     0.057546    -2.099727    0.044292
C     1.171888    -2.933255    0.203920
C     0.798999    -4.216194    0.011496
C     -0.609783    -4.215360    -0.286658
C     -1.027537    -2.931978    -0.262019
H     2.092923    -2.434367    0.449220
H     1.446627    -5.079545    0.073985
H     -1.971249    -2.434141    -0.402099
H     -1.228059    -5.077941    -0.492488
O     -2.353930    -0.015055    0.088048
C     -3.159887    -0.170255    -1.037955
C     -4.460999    -0.011407    -0.705826
C     -4.500096    0.264636    0.705026
C     -3.221539    0.252693    1.146037
H     -2.640725    -0.381429    -1.957723
H     -5.305132    -0.081388    -1.377648
H     -2.759675    0.391324    2.108735
H     -5.380735    0.444329    1.305993
C     -0.274292    -0.009529    4.913216
C     -0.506076    -1.175241    4.184309
C     -0.392411    -1.145940    2.798911
N     -0.072069    -0.019604    2.117512
C     0.147302    1.112286    2.831379
C     0.059942    1.152694    4.217519
H     -0.350410    -0.006838    5.996123
H     -0.771909    -2.105770    4.674401
H     -0.569099    -2.039976    2.218547
H     0.402045    2.002762    2.274706
H     0.251933    2.086637    4.735092
