27

Co     -0.082130    -0.082083    -0.034488
P     -0.499189    2.492369    0.339866
H     -1.816855    2.999050    0.329312
H     -0.040459    3.111954    1.522254
H     0.076899    3.367821    -0.604997
P     2.532285    0.271174    0.383089
H     3.052971    1.583132    0.414588
H     3.141210    -0.229497    1.553935
H     3.403278    -0.286461    -0.576413
P     0.342008    -2.653865    -0.460141
H     1.611794    -3.215212    -0.202409
H     -0.451619    -3.614065    0.204047
H     0.170901    -3.102633    -1.786342
P     -2.673358    -0.462038    -0.552855
H     -3.074794    -1.642597    -1.213932
H     -3.631271    -0.450829    0.483339
H     -3.271490    0.481378    -1.415376
P     -0.495996    -0.413150    2.547061
H     0.429224    0.149338    3.452643
H     -1.684662    0.099260    3.110191
H     -0.551182    -1.719202    3.080036
C     0.445348    0.394827    -3.260892
N     0.261713    0.211119    -2.130293
C     0.674838    0.623415    -4.680475
H     1.619770    0.160596    -4.984962
H     0.721601    1.698810    -4.882700
H     -0.141601    0.184988    -5.264496
