23

Co     0.013954    0.024625    0.076398
N     -0.159569    2.269686    0.365834
H     -1.036193    2.661481    0.711963
H     0.585406    2.745315    0.875740
H     -0.076395    2.567219    -0.608688
N     2.266013    0.201287    0.363557
H     2.626706    1.063250    0.773744
H     2.789111    -0.560084    0.798360
H     2.538321    0.221561    -0.621357
N     0.221764    -2.204508    -0.326529
H     1.100041    -2.644653    -0.049507
H     -0.518814    -2.857653    -0.068017
H     0.239344    -2.163601    -1.347941
N     -2.210209    -0.191693    -0.318886
H     -2.672490    -1.065149    -0.063919
H     -2.831987    0.558705    -0.015208
H     -2.199262    -0.155542    -1.340600
N     -0.323586    -0.261660    2.258855
H     -1.202026    0.154544    2.568693
H     -0.368642    -1.248226    2.515360
H     0.410835    0.152644    2.833223
C     0.323633    0.310647    -1.960517
N     0.484044    0.422059    -3.113998
