15

Co     0.079024    0.095399    0.044266
C     -0.201620    1.978632    0.336008
O     -0.366799    3.079795    0.504910
C     1.962517    0.420390    -0.204851
O     3.062789    0.614483    -0.346293
C     0.357924    -1.771257    -0.284377
O     0.520870    -2.867058    -0.492173
C     -1.786530    -0.225008    0.333605
O     -2.882197    -0.415837    0.517367
S     0.622716    -0.250448    2.704601
H     -0.026842    -1.392340    3.027371
H     -0.267247    0.550029    3.334961
S     -0.336390    0.583589    -2.613466
H     -1.348167    -0.247964    -2.952385
H     0.609962    -0.152376    -3.240389
