23

Co     0.000794    0.000598    -0.102919
C     -0.473589    2.237795    0.108470
O     -0.745472    3.323702    0.237000
C     2.236204    0.519614    0.023898
O     3.339340    0.747372    0.047667
C     0.472905    -2.238822    0.107642
O     0.746680    -3.324348    0.235421
C     -2.236713    -0.519934    0.025181
O     -3.339965    -0.747484    0.047409
O     0.001037    0.001271    2.055195
H     0.485215    0.609940    2.643264
H     -0.483866    -0.608604    2.641300
C     0.000382    0.000259    -4.941564
C     0.546826    1.073758    -4.231460
C     0.530737    1.036988    -2.845502
N     -0.000062    -0.000203    -2.147523
C     -0.530888    -1.037109    -2.845793
C     -0.546331    -1.073306    -4.231699
H     -0.000807    0.000494    -6.027475
H     0.978309    1.927894    -4.742590
H     0.953506    1.853617    -2.268315
H     -0.953619    -1.853868    -2.268682
H     -0.980379    -1.926297    -4.742339
