73
03/24/2023 16:57, XYZ structure generated by mol3D Class, molSimplify
Co     0.003555    -0.032978    -0.038134
O     -0.375544    2.116216    0.135624
C     -0.872011    2.823520    1.046689
N     -2.082279    3.446429    0.987086
C     -2.239234    4.398994    2.091518
C     -1.213116    3.849121    3.111610
N     -0.290399    3.123968    2.234605
H     -3.258550    4.396964    2.482314
H     -1.982014    5.417489    1.774855
H     -1.689429    3.171036    3.831631
H     -0.706214    4.646104    3.659708
H     -2.530646    3.575676    0.090989
H     0.491441    2.566367    2.565668
O     1.959331    0.362166    -0.177156
C     2.823330    -0.244288    -0.875056
N     4.140866    0.097662    -0.896653
C     4.844012    -0.650318    -1.948648
C     3.892985    -1.852912    -2.151178
N     2.614651    -1.304601    -1.680463
H     5.840856    -0.953549    -1.623712
H     4.934631    -0.050352    -2.862498
H     4.196281    -2.710523    -1.538073
H     3.834686    -2.168166    -3.194840
H     4.407454    1.043215    -0.655727
H     1.770930    -1.861520    -1.538094
O     0.157406    -2.180368    -0.608029
C     -0.287052    -3.171004    0.024551
N     -0.567159    -3.222190    1.350372
C     -1.258773    -4.466540    1.694826
C     -0.856024    -5.377762    0.511746
N     -0.575105    -4.382831    -0.528768
H     -2.345865    -4.318043    1.732728
H     -0.923128    -4.862197    2.655705
H     -1.657648    -6.056059    0.213177
H     0.038793    -5.967349    0.748090
H     -0.647251    -2.352666    1.866336
H     -0.182042    -4.631818    -1.425603
O     -1.921662    -0.309685    0.395937
C     -2.884097    -0.592154    -0.362673
N     -4.190496    -0.454895    -0.007639
C     -5.065586    -1.083554    -1.003270
C     -4.143241    -1.094293    -2.244719
N     -2.814383    -1.085327    -1.623357
H     -5.975265    -0.501333    -1.162245
H     -5.343713    -2.101187    -0.701044
H     -4.296184    -0.199187    -2.861355
H     -4.290941    -1.980396    -2.865172
H     -4.436284    -0.387283    0.970508
H     -1.952410    -0.926836    -2.137749
O     0.226817    -0.473416    1.993295
C     1.066899    -0.088381    2.837673
N     1.972601    0.935732    2.669779
C     2.955888    0.896393    3.769506
C     2.153706    0.189392    4.883010
N     1.206859    -0.596889    4.084901
H     3.275820    1.899892    4.055214
H     3.836624    0.308836    3.483467
H     1.625252    0.907756    5.522042
H     2.777858    -0.450112    5.509819
H     2.281592    1.067827    1.707762
H     0.474741    -1.159451    4.496215
O     -0.263482    0.143351    -2.080595
C     0.035889    1.096855    -2.847308
N     -0.178667    1.077752    -4.192738
C     0.468920    2.228882    -4.834614
C     0.599874    3.201691    -3.640570
N     0.606359    2.276164    -2.500534
H     -0.143673    2.634324    -5.641930
H     1.451408    1.953145    -5.237576
H     -0.257797    3.884493    -3.588136
H     1.516473    3.793470    -3.682480
H     -0.269137    0.187575    -4.663990
H     0.481745    2.584286    -1.538042
