14

Co     -0.000158    -0.000092    0.122175
C     0.088577    2.270447    0.061619
O     0.124385    3.394557    0.054593
C     2.271787    0.017681    0.057275
O     3.396296    0.030412    0.040242
C     -0.088721    -2.270727    0.061850
O     -0.125399    -3.394786    0.054332
C     -2.271721    -0.017435    0.057051
O     -3.396267    -0.029214    0.040649
C     0.000059    -0.000222    -2.213173
O     0.000459    -0.000263    -3.337983
O     0.000304    -0.000211    2.175267
H     0.568980    0.538799    2.760156
H     -0.568582    -0.538946    2.760273
