29

Co     -0.019172    -0.168660    0.057319
N     -0.307679    1.997810    -0.274271
H     0.120216    2.580584    0.448295
H     -1.295095    2.258360    -0.287687
H     0.069068    2.317696    -1.168420
N     2.145568    0.054739    -0.335860
H     2.744052    -0.276498    0.423282
H     2.413533    1.029225    -0.486098
H     2.439292    -0.442536    -1.178824
N     0.282081    -2.334759    0.374829
H     -0.039874    -2.653633    1.290451
H     1.268608    -2.595156    0.327575
H     -0.187951    -2.918704    -0.320077
N     -2.181617    -0.382050    0.462711
H     -2.490582    0.196301    1.246285
H     -2.439730    -1.338678    0.712429
H     -2.775348    -0.140241    -0.333071
N     0.293818    0.145807    2.220753
C     0.470350    0.321128    3.353782
C     0.692070    0.539839    4.777430
H     1.686408    0.969610    4.938155
H     -0.062202    1.228521    5.172213
H     0.623654    -0.411134    5.316080
N     -0.332458    -0.484244    -2.105598
C     -0.503028    -0.662908    -3.239041
C     -0.714407    -0.886385    -4.663497
H     0.244141    -0.854556    -5.192024
H     -1.176832    -1.866189    -4.822850
H     -1.372168    -0.111151    -5.070277
