29

Co     0.000742    0.001347    -0.018116
C     0.420766    2.167146    0.299103
N     0.631739    3.302785    0.469089
C     0.885544    4.683685    0.679099
H     1.564737    5.054757    -0.093568
H     1.339123    4.828935    1.663596
H     -0.053985    5.241074    0.628333
C     2.191746    -0.251889    -0.339541
N     3.344055    -0.385205    -0.471799
C     4.746668    -0.550379    -0.616410
H     4.951125    -1.314793    -1.371255
H     5.180432    -0.857715    0.339337
H     5.197585    0.394623    -0.932074
C     -0.421669    -2.164410    -0.330573
N     -0.637980    -3.300395    -0.491222
C     -0.898870    -4.682498    -0.683661
H     -1.894045    -4.811975    -1.118291
H     -0.851541    -5.202985    0.277028
H     -0.153602    -5.105868    -1.362858
C     -2.188579    0.253970    0.315681
N     -3.338301    0.385719    0.470156
C     -4.737242    0.546633    0.650269
H     -4.936401    1.500687    1.146338
H     -5.124406    -0.267215    1.269776
H     -5.237203    0.533559    -0.322348
C     0.296270    -0.354097    2.046486
N     0.467407    -0.550067    3.188279
C     -0.294897    0.356018    -2.081371
N     -0.466160    0.550982    -3.223303
