37

Co     0.000085    0.001718    0.175244
C     0.004361    1.932089    0.079924
N     0.007496    3.090311    0.018321
C     0.012282    4.518705    -0.058421
H     0.848318    4.840068    -0.684131
H     0.122255    4.930351    0.947725
H     -0.929841    4.856445    -0.496653
C     1.930402    -0.002763    0.080852
N     3.088752    -0.005934    0.021760
C     4.517389    -0.010839    -0.050423
H     4.840639    -0.845465    -0.677038
H     4.925651    -0.123311    0.956829
H     4.856798    0.932264    -0.485230
C     -0.004640    -1.928513    0.080319
N     -0.008433    -3.086748    0.018961
C     -0.014394    -4.515189    -0.056936
H     -0.850743    -4.836203    -0.682408
H     -0.124678    -4.926099    0.949479
H     0.927443    -4.853995    -0.494951
C     -1.930176    0.005180    0.083953
N     -3.088668    0.006491    0.027604
C     -4.517482    0.006187    -0.041049
H     -4.889041    0.996240    0.233568
H     -4.908425    -0.741955    0.652666
H     -4.826007    -0.235999    -1.060849
C     0.001999    0.001984    2.367629
N     0.000371    -0.000853    3.531157
C     -0.003026    -0.005739    4.961637
H     0.602350    -0.841976    5.319497
H     -1.030159    -0.114779    5.317870
H     0.415961    0.935415    5.325647
C     0.004500    0.004306    -3.473080
N     0.002647    0.005028    -2.313531
C     0.007218    0.003223    -4.932703
H     1.029938    -0.108340    -5.306292
H     -0.406772    0.943537    -5.310011
H     -0.599286    -0.826652    -5.308758
