23

Co     -0.000055    0.000055    -0.116784
C     0.000492    2.032138    0.256306
O     0.001091    3.116643    0.562336
C     1.897302    -0.001493    -0.260670
O     3.015103    -0.002847    -0.405081
C     -0.000533    -2.032089    0.256063
O     -0.001227    -3.116655    0.561849
C     -1.897362    0.001489    -0.260623
O     -3.015173    0.002917    -0.405002
O     -0.000007    0.000006    2.198938
H     0.773994    0.027610    2.791551
H     -0.773940    -0.027963    2.791626
C     0.000053    0.000473    -5.009707
C     -0.024789    1.202489    -4.299025
C     -0.023019    1.164843    -2.910467
N     -0.000012    0.000114    -2.221800
C     0.022967    -1.164461    -2.910726
C     0.025023    -1.201709    -4.299295
H     0.000115    0.000602    -6.095588
H     -0.045629    2.161844    -4.805486
H     -0.041224    2.085934    -2.337699
H     0.041226    -2.085682    -2.338150
H     0.045845    -2.160932    -4.805981
