29

Co     -0.026614    -0.171291    0.000827
N     0.051097    1.747312    -0.644440
H     -0.105442    2.416045    0.114066
H     -0.646576    1.942270    -1.366050
H     0.946601    2.005206    -1.063949
N     1.998344    -0.311908    -0.162190
H     2.409717    -1.106949    0.330896
H     2.475239    0.507286    0.221041
H     2.292868    -0.403163    -1.137423
N     -0.119184    -2.069495    0.704509
H     0.042615    -2.089584    1.714604
H     0.572565    -2.691987    0.281635
H     -1.017720    -2.530521    0.546087
N     -2.046260    -0.005259    0.226275
H     -2.386480    0.958193    0.209207
H     -2.366421    -0.382526    1.120735
H     -2.557945    -0.500850    -0.507290
N     0.260554    0.585136    2.253189
C     0.387359    0.939850    3.351927
C     0.544276    1.383596    4.732649
H     -0.424800    1.370690    5.242095
H     1.233921    0.719547    5.263998
H     0.944141    2.402495    4.756150
N     -0.310068    -0.921627    -2.172540
C     -0.404249    -1.287110    -3.270469
C     -0.517248    -1.744634    -4.650478
H     -1.570985    -1.801799    -4.942234
H     -0.001233    -1.047085    -5.318416
H     -0.065373    -2.736551    -4.753279
