19

Co     -0.000277    0.000046    -0.001805
N     -0.060573    2.332258    0.511033
H     -0.895774    2.896775    0.366294
H     -0.086183    1.922201    1.453931
H     0.736363    2.962957    0.442854
N     2.019926    0.067900    -0.248940
H     2.456037    0.961942    -0.036601
H     2.565854    -0.672498    0.185550
H     1.967139    -0.055153    -1.264799
N     0.061220    -2.333013    -0.515619
H     0.897705    -2.896405    -0.373862
H     -0.734507    -2.965181    -0.446782
H     0.084447    -1.921598    -1.458030
N     -2.020314    -0.067614    0.245163
H     -2.458949    -0.958845    0.026345
H     -1.967371    0.049287    1.261774
H     -2.564050    0.677272    -0.184390
F     -0.095701    0.132526    1.893197
F     0.095056    -0.132841    -1.896850
