19

Co     0.030487    0.018658    0.071017
O     -0.178212    2.292904    0.180481
H     -0.940713    2.906773    0.233502
S     1.144557    2.831841    1.187976
S     2.565899    1.956454    0.139047
O     1.991613    0.262306    0.503083
H     2.605557    -0.390464    0.101552
O     0.652505    -2.213784    -0.140066
H     0.237692    -2.886316    -0.720188
S     0.851390    -2.813116    1.473781
S     -0.749491    -1.969871    2.346470
O     -0.373228    -0.257772    2.055744
H     0.333584    0.035083    2.670759
O     -1.968655    -0.158108    -0.276171
H     -2.583143    -0.570768    0.368294
S     -2.196604    -0.800238    -1.936333
S     -1.178864    0.646937    -2.781882
O     0.370877    0.231546    -1.952159
H     1.012231    0.941851    -2.174160
