37

Co     0.000003    -0.000997    0.003756
C     0.543727    3.248651    0.499492
N     0.362055    2.117429    0.335185
C     0.773171    4.672885    0.705818
H     0.355692    5.242795    -0.130411
H     1.847664    4.871875    0.770562
H     0.293605    4.998749    1.634258
C     3.257827    -0.462707    -0.523569
N     2.125471    -0.296772    -0.350644
C     4.683822    -0.670087    -0.741084
H     5.207094    0.291213    -0.723080
H     4.848683    -1.148133    -1.711849
H     5.091564    -1.311902    0.046436
C     -0.549148    -3.249154    -0.494155
N     -0.362886    -2.118888    -0.328434
C     -0.784521    -4.671936    -0.703793
H     0.134938    -5.155667    -1.048501
H     -1.565301    -4.813170    -1.457999
H     -1.104795    -5.139958    0.232456
C     -3.257710    0.458095    0.531893
N     -2.125135    0.294601    0.358090
C     -4.683909    0.662309    0.751035
H     -5.078704    -0.129734    1.395419
H     -5.215551    0.641236    -0.205553
H     -4.853119    1.630631    1.232542
C     0.272645    -0.321004    2.147236
N     0.417875    -0.484133    3.288160
C     0.599222    -0.686453    4.691609
H     1.055244    -1.665653    4.856185
H     -0.372502    -0.643424    5.189280
H     1.251906    0.096090    5.085754
C     -0.270568    0.320033    -2.140096
N     -0.412487    0.486170    -3.281012
C     -0.588265    0.693202    -4.684562
H     -1.356374    0.010168    -5.054915
H     0.357206    0.500144    -5.196971
H     -0.897919    1.726605    -4.857823
