22

Co     0.077580    -0.027733    -0.088306
S     -0.266439    2.540617    0.356071
H     0.828458    2.987444    1.009018
H     0.096563    3.096427    -0.819750
S     2.656927    0.397620    -0.471188
H     3.094418    -0.666584    -1.178430
H     3.297378    0.037942    0.662874
S     0.486931    -2.626479    -0.543806
H     0.861945    -3.194433    0.623384
H     -0.724531    -3.224162    -0.554123
S     -2.480047    -0.459788    0.343450
H     -3.085116    -0.324743    -0.856067
H     -2.960366    0.703668    0.833252
S     0.498467    -0.440907    2.466671
H     0.161496    0.653565    3.183035
H     -0.548465    -1.173674    2.903320
C     -0.156035    0.141633    -2.195719
N     -0.260370    0.222887    -3.348323
C     -0.374198    0.321239    -4.775313
H     -0.121755    -0.646559    -5.215636
H     0.316955    1.089113    -5.131534
H     -1.401248    0.593967    -5.030450
