17

Co     0.022791    0.002169    0.151577
O     0.056377    2.246535    0.348479
H     0.040722    2.505899    -0.593177
H     -0.538467    2.853296    0.819855
O     1.996024    0.313245    0.504420
H     2.432719    0.176504    -0.360143
H     2.055497    1.278938    0.647755
O     0.169507    -2.227696    0.193344
H     0.975498    -2.657715    -0.139674
H     -0.556514    -2.572942    -0.354406
O     -1.933764    -0.438912    -0.233512
H     -2.611105    0.016738    0.295176
H     -2.074901    -0.191031    -1.168546
O     -0.357894    -0.327723    2.112168
H     0.349548    -0.033350    2.712312
H     -0.365913    -1.303058    2.180548
Cl     0.337766    0.359297    -2.067586
