21

Co     0.000004    0.000035    0.001445
C     0.000032    1.946693    0.001752
O     0.000043    3.072527    0.001918
C     1.946688    0.000008    0.002066
O     3.072519    -0.000005    0.002446
C     -0.000023    -1.946629    0.001945
O     -0.000035    -3.072462    0.002267
C     -1.946679    0.000064    0.001673
O     -3.072510    0.000075    0.001819
C     0.001342    -0.000133    3.363985
N     0.000269    0.000002    2.203522
C     0.003421    -0.000373    4.818233
H     -1.026351    -0.036254    5.190919
H     0.488209    0.909888    5.188427
H     0.550318    -0.874907    5.187960
C     -0.001344    0.000113    -3.360595
N     -0.000264    0.000015    -2.200136
C     -0.003430    0.000306    -4.814843
H     1.026340    0.036175    -5.187533
H     -0.550330    0.874829    -5.184593
H     -0.488221    -0.909967    -5.185003
