35

Co     -0.068330    -0.056956    0.074054
C     0.203677    1.829055    -0.256665
N     0.366268    2.962192    -0.448837
C     0.568154    4.362173    -0.669689
H     1.552149    4.515565    -1.119039
H     0.512113    4.885456    0.287865
H     -0.208521    4.734461    -1.341964
C     1.819925    -0.375160    -0.207724
N     2.952721    -0.563753    -0.376343
C     4.352226    -0.793593    -0.570942
H     4.494434    -1.780034    -1.018654
H     4.858640    -0.748761    0.396229
H     4.752531    -0.024121    -1.235295
C     -0.352956    -1.948581    0.361930
N     -0.523798    -3.083038    0.538167
C     -0.733392    -4.480034    0.770195
H     -1.400970    -4.874891    0.000624
H     -1.183983    -4.613969    1.756541
H     0.227836    -4.997698    0.728315
C     -1.961227    0.258058    0.308610
N     -3.096667    0.447595    0.457831
C     -4.494634    0.684167    0.655577
H     -4.683812    1.759714    0.621649
H     -4.789828    0.286294    1.629466
H     -5.058218    0.183705    -0.135477
C     0.282730    0.259673    2.298073
N     0.463942    0.414969    3.437617
C     0.686700    0.604997    4.838237
H     1.318805    -0.202789    5.214714
H     -0.273438    0.595175    5.359642
H     1.182432    1.565653    4.996877
N     -0.389914    -0.404219    -2.247841
H     -1.380962    -0.476390    -2.480335
H     -0.019369    0.353867    -2.822253
H     0.044563    -1.260684    -2.594043
