32

Co     -0.035989    0.039726    0.548671
C     -0.327103    1.921539    0.731401
N     -0.516653    3.068615    0.745099
C     -0.766817    4.464316    0.610845
H     -0.894567    4.701565    -0.448751
H     0.077614    5.027074    1.016558
H     -1.674711    4.725966    1.160003
C     1.802898    0.373982    0.140553
N     2.891562    0.588203    -0.206989
C     4.166706    0.867308    -0.776545
H     4.056044    0.972234    -1.859193
H     4.854079    0.047770    -0.552443
H     4.559001    1.795805    -0.354205
C     0.206635    -1.791082    0.045307
N     0.338288    -2.874732    -0.354960
C     0.472005    -4.145829    -0.983323
H     0.208044    -4.048856    -2.039876
H     -0.194322    -4.864457    -0.499697
H     1.505224    -4.489952    -0.891825
C     -1.926471    -0.244391    0.627655
N     -3.077811    -0.398080    0.576143
C     -4.476718    -0.557240    0.361456
H     -5.024982    0.149272    0.989609
H     -4.771494    -1.577374    0.619927
H     -4.698321    -0.364864    -0.691807
C     0.304239    -0.309712    2.716063
N     0.477051    -0.491393    3.855267
C     0.687213    -0.713461    5.247961
H     1.756404    -0.833352    5.440283
H     0.157210    -1.618259    5.556108
H     0.308561    0.141542    5.813791
Cl     -0.432564    0.442288    -1.934708
