21

Co     -0.000416    0.000298    0.002592
N     -0.303603    2.241623    -0.189262
H     -1.302558    2.439076    -0.171443
H     0.110531    2.705308    0.618043
H     0.061645    2.654568    -1.046404
N     2.224470    0.273674    -0.357358
H     2.411095    1.263310    -0.508583
H     2.761529    -0.005302    0.462561
H     2.563124    -0.228018    -1.177019
N     0.302907    -2.240878    0.194973
H     1.302415    -2.436068    0.183603
H     -0.067049    -2.656791    1.048651
H     -0.104726    -2.703545    -0.616234
N     -2.224995    -0.273530    0.361316
H     -2.411704    -1.264331    0.504557
H     -2.561336    0.221557    1.185951
H     -2.763973    0.012589    -0.454848
C     0.308868    0.361332    2.056746
N     0.486006    0.651067    3.177588
C     -0.308867    -0.361607    -2.051545
N     -0.483349    -0.654345    -3.172028
