19

Co     -0.000220    -0.000397    0.000217
N     0.010966    2.123959    0.000368
C     0.015553    3.275263    0.000456
H     0.019572    4.352653    0.000541
N     2.128697    0.010715    0.000333
C     3.280056    0.015239    0.000425
H     4.357427    0.019190    0.000529
N     -0.010312    -2.124539    0.000045
C     -0.014307    -3.275844    -0.000096
H     -0.017751    -4.353238    -0.000223
N     -2.128923    -0.010392    0.000083
C     -3.280283    -0.014298    -0.000060
H     -4.357657    -0.017650    -0.000198
N     -0.000111    -0.000420    1.953989
C     -0.000016    -0.000406    3.103336
H     0.000093    -0.000370    4.181267
N     -0.000275    -0.000333    -1.953565
C     -0.000357    -0.000343    -3.102911
H     -0.000425    -0.000350    -4.180843
