33

Co     0.025972    -0.080145    0.242622
O     0.518537    2.025687    0.161579
H     1.065103    2.411137    -0.545567
H     0.001696    2.755469    0.545144
O     2.080610    -0.493986    -0.020006
H     2.425360    -0.607060    -0.923267
H     2.816355    -0.177487    0.531526
O     -0.280275    -2.137424    -0.138282
H     0.319133    -2.817127    0.215747
H     -1.179730    -2.507555    -0.133716
O     -2.067765    0.104455    -0.081435
H     -2.715474    0.597614    0.450578
H     -2.337770    0.181912    -1.014063
O     -0.013224    0.005797    -2.102706
C     0.378825    -0.973987    -3.019069
C     0.316516    -0.478379    -4.275892
C     -0.138779    0.882604    -4.173775
C     -0.322170    1.139119    -2.858967
H     0.604174    -1.941349    -2.599794
H     0.553012    -1.014786    -5.184510
H     -0.650559    1.999913    -2.298670
H     -0.310469    1.573389    -4.988313
C     -0.113684    -0.058111    5.111986
C     0.750675    0.796765    4.424752
C     0.739459    0.788458    3.036181
N     -0.075546    -0.019654    2.318063
C     -0.910732    -0.844639    2.990951
C     -0.959107    -0.892904    4.378129
H     -0.128295    -0.073770    6.197660
H     1.423484    1.463091    4.953843
H     1.386080    1.447587    2.467050
H     -1.553329    -1.479732    2.390014
H     -1.646106    -1.573127    4.869695
