24

Co     0.013145    0.039647    0.010243
P     -0.379602    2.646010    0.226179
H     -1.395981    3.076641    1.105244
H     0.664630    3.485272    0.669466
H     -0.768167    3.363651    -0.925848
P     2.584093    0.441088    0.516923
H     2.982042    0.946051    1.773136
H     3.460381    -0.661303    0.431002
H     3.290331    1.341810    -0.309713
P     0.350911    -2.570487    -0.326533
H     1.669912    -3.071201    -0.331524
H     -0.229039    -3.477150    0.586210
H     -0.105669    -3.154375    -1.528225
P     -2.546153    -0.311598    -0.558782
H     -3.147433    -1.553697    -0.264893
H     -3.487890    0.541571    0.055352
H     -2.967661    -0.171690    -1.898894
P     -0.387046    -0.377483    2.590580
H     -0.334655    0.718049    3.478399
H     -1.601992    -0.955497    3.016174
H     0.511887    -1.241319    3.251826
O     0.611549    0.197753    -2.071417
H     0.141768    -0.222574    -2.813559
H     1.056463    0.978350    -2.447022
