25

Co     -0.010408    -0.120128    -0.040571
O     0.308863    1.954576    0.204624
H     -0.343838    2.511065    0.661419
H     1.192539    2.241690    0.491728
O     2.090543    -0.267374    0.309670
H     2.684598    -0.314442    -0.459691
H     2.399184    -0.949732    0.930857
O     -0.169778    -2.218023    -0.302078
H     -0.766737    -2.777946    0.222684
H     -0.118355    -2.613294    -1.189349
O     -2.063247    0.386930    -0.248897
H     -2.784128    0.042104    0.304143
H     -2.448149    0.609084    -1.113714
N     -0.380610    -0.464871    2.035415
C     -0.515814    -0.601404    3.178950
C     -0.686300    -0.772709    4.614312
H     -0.276295    -1.739509    4.925831
H     -0.163858    0.028249    5.148283
H     -1.750501    -0.735230    4.870254
N     0.338150    0.143777    -2.126545
C     0.524761    0.398469    -3.242329
C     0.763942    0.720284    -4.641257
H     -0.186156    0.746814    -5.185697
H     1.245818    1.700967    -4.717457
H     1.414759    -0.036309    -5.092649
