19
03/24/2023 16:57, XYZ structure generated by mol3D Class, molSimplify
Co     -0.171718    0.010120    0.055284
N     -0.593199    1.893751    0.349024
S     0.257490    3.049514    -0.213468
H     1.363834    2.315386    -0.702186
N     1.636938    0.523857    -0.362385
S     2.872566    -0.352300    -0.879062
H     2.436892    -1.649787    -0.774641
N     0.168836    -1.859760    -0.273596
S     -0.528008    -3.056147    0.395537
H     -1.491699    -2.507709    1.224652
N     -2.064757    -0.420500    0.309428
S     -3.292514    0.489142    0.466246
H     -2.785875    1.782660    0.441189
N     0.090655    -0.338587    1.923358
S     0.897607    0.380392    3.015032
H     1.494603    1.489297    2.430821
N     -0.196557    0.451289    -1.806728
S     -0.045289    -0.427867    -3.095024
H     -0.016154    -1.748116    -2.691945
