29

Co     0.001491    0.002470    0.003070
N     -0.225305    2.192238    0.397045
H     -1.197986    2.435829    0.594422
H     0.306086    2.518991    1.206534
H     0.048561    2.788967    -0.386277
N     2.194928    0.304142    -0.321421
H     2.417813    1.299573    -0.376917
H     2.776680    -0.063875    0.434381
H     2.557058    -0.103136    -1.185824
N     0.231503    -2.188753    -0.385285
H     1.208297    -2.433783    -0.559103
H     -0.061818    -2.784740    0.391542
H     -0.280779    -2.515362    -1.207077
N     -2.192539    -0.298594    0.321078
H     -2.422177    -1.293858    0.341043
H     -2.549308    0.079779    1.200686
H     -2.773713    0.100408    -0.419292
C     0.300697    -0.309736    2.192956
N     0.448379    -0.474940    3.334606
C     0.630814    -0.679824    4.742404
H     1.361864    -1.477638    4.893725
H     -0.325980    -0.962445    5.187910
H     0.992563    0.247140    5.193634
C     -0.298240    0.311828    -2.186657
N     -0.449504    0.472846    -3.328429
C     -0.638065    0.671223    -4.736268
H     -1.239517    -0.149549    -5.134214
H     0.337829    0.689871    -5.227346
H     -1.152928    1.621630    -4.895940
