33

Co     0.002515    -0.004042    0.020263
C     0.568292    3.209380    -0.487473
N     0.371647    2.083676    -0.297927
C     0.815076    4.624923    -0.726663
H     0.701210    4.847140    -1.792794
H     1.832410    4.883574    -0.415371
H     0.102242    5.230131    -0.157223
C     3.231352    -0.494246    0.493623
N     2.100976    -0.314705    0.316840
C     4.653558    -0.718543    0.715158
H     5.195065    0.230603    0.647780
H     5.045342    -1.408282    -0.039461
H     4.811784    -1.149272    1.709342
C     -0.545183    -3.217478    0.529783
N     -0.357483    -2.090508    0.340049
C     -0.782153    -4.635031    0.766909
H     0.166865    -5.143483    0.965921
H     -1.250604    -5.086545    -0.113812
H     -1.444383    -4.763940    1.629213
C     -3.235113    0.467695    -0.429373
N     -2.100986    0.297619    -0.266307
C     -4.661524    0.682218    -0.632349
H     -5.232210    0.115844    0.110988
H     -4.950756    0.348445    -1.634189
H     -4.896797    1.746327    -0.527650
P     -0.372297    0.546647    2.594962
H     0.737969    0.852564    3.411408
H     -1.178399    1.661345    2.910948
H     -0.993943    -0.405806    3.431303
P     0.344117    -0.497025    -2.574718
H     1.657361    -0.520784    -3.091540
H     -0.118077    -1.717067    -3.113403
H     -0.234841    0.379509    -3.518398
