43

Co     0.011298    -0.034166    0.009240
N     -0.033034    2.208249    0.316242
H     -0.491423    2.329694    1.219954
H     -0.704263    2.595350    -0.350210
C     1.181455    3.072726    0.300101
H     1.858967    2.758437    1.098024
H     1.690818    2.971780    -0.661133
H     0.939673    4.128550    0.453989
N     2.255974    0.047768    -0.308442
H     2.622086    0.758283    0.326720
H     2.385085    0.457472    -1.235086
C     3.141119    -1.150198    -0.218169
H     3.023300    -1.622483    0.760922
H     2.861190    -1.868051    -0.991842
H     4.196368    -0.894739    -0.352151
N     0.056098    -2.276238    -0.298404
H     0.728990    -2.663385    0.366345
H     0.512396    -2.397163    -1.203270
C     -1.158198    -3.140969    -0.279765
H     -1.666005    -3.039516    0.682242
H     -1.837134    -2.827136    -1.076633
H     -0.916458    -4.196818    -0.433480
N     -2.233259    -0.115966    0.326556
H     -2.362631    -0.534559    1.249176
H     -2.600297    -0.820079    -0.315231
C     -3.116969    1.083797    0.247612
H     -2.834618    1.795103    1.026429
H     -3.000233    1.563380    -0.728025
H     -4.172310    0.828672    0.381510
N     0.307371    -0.362444    2.246824
H     1.314928    -0.467260    2.383971
H     -0.066604    -1.289333    2.462591
C     -0.191024    0.578860    3.292843
H     0.304603    1.545622    3.179015
H     -1.270053    0.715849    3.183965
H     0.008183    0.212505    4.304314
N     -0.283957    0.296061    -2.228236
H     0.094517    1.221203    -2.443655
H     -1.290971    0.405624    -2.365640
C     0.210266    -0.647512    -3.274207
H     1.288297    -0.791147    -3.163748
H     -0.291304    -1.611360    -3.161685
H     0.014863    -0.279283    -4.285731
