37

Co     -0.192218    -0.087035    -0.095055
O     -0.215322    2.012765    -0.498942
H     -0.341681    2.108023    -1.458910
C     -0.765132    3.173009    0.191713
H     -0.451459    3.099791    1.232322
H     -0.353769    4.083656    -0.248146
H     -1.856035    3.177720    0.125721
O     1.837782    0.251018    0.112956
H     2.019746    1.198028    -0.014719
C     2.966139    -0.403842    0.762805
H     2.657154    -1.426347    0.975580
H     3.822870    -0.406780    0.085889
H     3.218121    0.111072    1.692641
O     -0.198230    -2.196495    0.285083
H     -0.126970    -2.309647    1.249480
C     0.398707    -3.340045    -0.396365
H     0.166531    -3.232559    -1.455598
H     1.481221    -3.351725    -0.248794
H     -0.047909    -4.261018    -0.016644
O     -2.272710    -0.460989    -0.187967
H     -2.395819    -1.424715    -0.120891
C     -3.411530    0.148463    -0.864978
H     -3.212822    1.218251    -0.913137
H     -3.523464    -0.259545    -1.873173
H     -4.318089    -0.032324    -0.284004
O     -0.585164    -0.090468    2.023479
H     -1.550600    -0.123754    2.141516
C     0.013534    0.585711    3.167976
H     1.087990    0.608918    2.994985
H     -0.375116    1.603303    3.256705
H     -0.201154    0.019063    4.076464
O     -0.074832    -0.110400    -2.259632
H     -0.792824    -0.574104    -2.720924
C     1.126709    -0.180384    -3.093398
H     1.899709    0.370991    -2.562874
H     1.435797    -1.219478    -3.227935
H     0.923859    0.287657    -4.058716
