17

Co     -0.169815    0.255243    0.062941
S     0.284315    2.894010    0.522747
H     1.296045    2.765728    1.405267
H     1.097971    3.166197    -0.518375
S     2.574059    -0.029986    -0.401851
H     2.887899    -1.074496    0.391463
H     2.586692    -0.751163    -1.540858
S     -0.844084    -2.426913    -0.404613
H     0.011295    -3.109994    0.383404
H     -0.174250    -2.689049    -1.544739
S     -2.811879    0.697446    0.541881
H     -2.999717    -0.239793    1.493388
H     -3.342735    -0.056103    -0.443011
C     0.135782    -0.147394    2.009473
N     0.334835    -0.411711    3.130918
C     -0.382151    0.520442    -1.918913
N     -0.485166    0.639200    -3.077465
