34

Co     0.085413    -0.097861    0.018283
C     0.590580    3.127737    -0.498313
N     0.450193    1.996551    -0.298154
C     0.766431    4.551496    -0.752716
H     0.673372    4.751405    -1.825127
H     1.756744    4.872548    -0.414345
H     0.002947    5.123444    -0.215783
C     3.329392    -0.543514    0.516496
N     2.203187    -0.390559    0.295371
C     4.746751    -0.734485    0.794388
H     5.264633    0.229722    0.771158
H     5.189749    -1.396667    0.043490
H     4.873551    -1.183862    1.784676
C     -0.468178    -3.331901    0.465445
N     -0.269745    -2.210525    0.256226
C     -0.719718    -4.742580    0.728364
H     0.198436    -5.227532    1.075130
H     -1.060467    -5.237835    -0.186758
H     -1.491798    -4.845715    1.497600
C     -3.134867    0.379310    -0.545897
N     -2.016192    0.182714    -0.324482
C     -4.542865    0.626769    -0.827049
H     -5.166865    -0.049296    -0.233816
H     -4.744914    0.458558    -1.889819
H     -4.797495    1.661120    -0.575098
C     -0.404196    0.459853    3.252595
N     -0.227332    0.256177    2.127244
C     -0.626321    0.717837    4.669261
H     -1.609185    0.340313    4.968722
H     -0.582933    1.794439    4.862820
H     0.144555    0.217894    5.264480
O     0.327244    -0.356860    -2.069515
H     0.043651    -1.209958    -2.439862
H     1.216793    -0.188651    -2.424547
