27

Co     0.066009    0.066774    -0.024196
O     0.366234    2.135242    0.191887
H     1.305589    2.391082    0.189725
H     -0.113557    2.780776    0.739696
O     2.228974    0.095355    -0.364058
H     2.539006    -0.037585    -1.276265
H     2.958350    -0.163288    0.224543
O     0.121587    -2.192447    0.042273
H     0.798501    -2.819202    -0.266693
H     -0.710046    -2.693581    0.109323
O     -1.976233    -0.316102    0.352594
H     -2.370380    -0.111568    1.218866
H     -2.655784    -0.142106    -0.321914
O     0.259991    -0.289233    2.061626
H     0.720050    0.197631    2.765924
H     0.356665    -1.239517    2.249065
C     -0.476959    0.256434    -4.923031
C     -0.260794    1.420671    -4.184741
C     -0.117608    1.330339    -2.805031
N     -0.179970    0.151280    -2.138248
C     -0.400546    -0.971108    -2.864875
C     -0.551282    -0.961809    -4.244675
H     -0.586179    0.296989    -6.002411
H     -0.202074    2.390771    -4.666988
H     0.047210    2.218723    -2.207344
H     -0.445271    -1.897143    -2.305851
H     -0.721241    -1.894047    -4.772615
