19

Co     0.021682    0.048402    0.009312
P     0.559702    2.298776    0.340607
H     -0.311014    3.398032    0.536202
P     2.443855    3.111865    0.184784
P     3.677724    1.284417    -0.208986
P     2.246133    -0.184897    -0.327174
H     2.930231    -1.405580    -0.522394
P     -0.343193    -2.301924    -0.212914
H     0.122271    -2.966064    -1.377893
P     0.129980    -3.640811    1.313810
P     -0.213402    -2.376333    3.073074
P     0.321666    -0.511099    2.310539
H     -0.136774    0.388370    3.308354
P     -2.200883    0.364310    0.291151
H     -2.915751    0.206392    1.499801
P     -3.591707    0.759188    -1.168807
P     -2.315671    0.903424    -3.003616
P     -0.457460    0.464623    -2.236335
H     0.439592    0.573424    -3.326244
