54

Co     0.008935    -0.009490    0.084225
C     -0.016873    -0.028298    -2.063931
N     0.002371    0.003652    -3.223625
C     0.024701    0.062227    -4.655212
H     -0.565012    -0.766266    -5.054643
H     1.058784    -0.019733    -4.998302
H     -0.400044    1.016472    -4.975859
O     0.014956    2.181832    -0.019463
C     -1.102017    2.991770    -0.243494
C     -0.716243    4.284007    -0.305415
C     0.712589    4.313159    -0.121539
C     1.121434    3.036333    0.040767
H     -2.041900    2.471416    -0.312086
H     -1.365599    5.134109    -0.461167
H     2.070824    2.548595    0.187986
H     1.345802    5.189612    -0.113459
O     2.308143    -0.032369    0.107227
C     3.164752    0.279524    1.166846
C     4.449623    0.125774    0.776403
C     4.426559    -0.312315    -0.595173
C     3.129304    -0.395327    -0.961847
H     2.681832    0.570968    2.084191
H     5.326047    0.299791    1.385680
H     2.619683    -0.683931    -1.865245
H     5.281486    -0.537418    -1.217734
O     0.068550    -2.207831    0.041585
C     1.185352    -3.014865    0.281200
C     0.853578    -4.309645    0.088364
C     -0.535487    -4.342588    -0.295524
C     -0.975059    -3.066033    -0.317025
H     2.080580    -2.490496    0.569384
H     1.514185    -5.158117    0.204591
H     -1.919114    -2.586940    -0.517051
H     -1.123207    -5.221809    -0.520009
O     -2.310502    -0.002148    0.061561
C     -3.156526    -0.248656    -1.022865
C     -4.445206    -0.092428    -0.647060
C     -4.436305    0.275042    0.744630
C     -3.143990    0.318031    1.136046
H     -2.669279    -0.507007    -1.947685
H     -5.314346    -0.221355    -1.277628
H     -2.644052    0.536636    2.063679
H     -5.297535    0.476696    1.366693
C     -0.175365    0.013503    5.013986
C     -0.359493    -1.165556    4.292188
C     -0.273479    -1.130185    2.904962
N     -0.032561    0.008518    2.212743
C     0.134752    1.151520    2.922362
C     0.080938    1.191617    4.310288
H     -0.230453    0.015472    6.098328
H     -0.567084    -2.107601    4.788549
H     -0.405598    -2.032566    2.323616
H     0.320457    2.054854    2.355542
H     0.235304    2.135262    4.823003
