23

Co     -0.030865    0.023949    0.055712
P     -0.393615    2.611451    0.496685
H     -1.615671    3.050285    1.048750
H     0.498046    3.238363    1.392442
H     -0.295702    3.507041    -0.589416
P     2.533476    0.499477    -0.418877
H     3.063523    1.779098    -0.151040
H     3.459265    -0.285359    0.300558
H     3.033602    0.308506    -1.724217
P     0.298301    -2.547212    -0.476701
H     1.585863    -3.100582    -0.311023
H     -0.449544    -3.474778    0.277808
H     0.012992    -3.016241    -1.776322
P     -2.631303    -0.388606    0.387188
H     -3.161267    -1.680514    0.185410
H     -3.198849    -0.099623    1.645823
H     -3.512730    0.346637    -0.434282
P     0.346157    -0.327073    2.622138
H     1.611091    -0.039730    3.177883
H     -0.460085    0.417430    3.509159
H     0.148879    -1.612914    3.169162
C     -0.350100    0.325999    -2.148974
O     -0.495531    0.475023    -3.258415
