25

Co     -0.009641    0.031885    0.158135
O     -0.294605    2.137602    0.092247
H     0.230241    2.773885    -0.424410
H     -1.193762    2.504899    0.163981
O     2.098108    0.190728    -0.016436
H     2.493773    0.427173    -0.874702
H     2.711521    0.506368    0.671270
O     0.392424    -2.000722    0.535070
H     1.292098    -2.354679    0.428506
H     -0.227380    -2.747388    0.469778
O     -2.093388    -0.197149    -0.074344
H     -2.702321    -0.460602    0.637532
H     -2.508156    -0.434013    -0.922571
O     -0.369512    0.188731    2.218690
H     -0.370870    1.042635    2.686209
H     -0.079036    -0.487828    2.855927
O     0.050729    -0.062182    -2.031553
C     0.771335    -0.965626    -2.822937
C     0.537166    -0.713255    -4.128544
C     -0.374198    0.401212    -4.190852
C     -0.647328    0.767018    -2.920066
H     1.344637    -1.705422    -2.287557
H     0.955190    -1.253392    -4.967142
H     -1.240389    1.544788    -2.466772
H     -0.767351    0.865140    -5.085385
