13

Co     0.132738    -0.164590    0.164367
P     0.525483    2.436899    0.626269
P     0.812557    4.283885    0.980310
P     2.424116    -0.565285    0.511376
P     4.269942    -0.897240    0.803725
P     -0.258920    -2.765755    -0.297475
P     -0.507680    -4.623777    -0.621297
P     -2.159305    0.238739    -0.182425
P     -4.006521    0.567014    -0.469933
P     -0.269069    -0.513993    2.452827
P     -0.598338    -0.802524    4.299680
P     0.534374    0.186632    -2.124949
P     0.864667    0.478172    -3.971140
