31

Co     -0.052278    0.025529    -0.763944
P     0.052193    2.458658    -1.907058
H     0.107568    3.673421    -1.178205
H     -0.998594    2.851660    -2.772666
P     1.769179    2.825865    -3.327690
H     2.757120    2.838756    -2.303439
P     2.256842    0.736426    -4.023141
H     1.055586    0.561612    -4.764490
P     1.580033    -0.590113    -2.325257
H     2.832963    -0.905589    -1.754077
H     1.371251    -1.810552    -3.006571
P     0.140627    -2.406771    0.383266
H     0.263736    -3.620725    -0.338742
H     -0.912454    -2.840480    1.226285
P     1.838952    -2.699015    1.843965
H     2.848506    -2.684674    0.841047
P     2.234870    -0.586545    2.529610
H     1.003860    -0.443993    3.228003
P     1.569698    0.689045    0.789296
H     1.352047    1.928615    1.432334
H     2.828444    0.988871    0.222258
P     -1.733595    0.706520    0.705979
H     -1.875463    -0.091781    1.863951
H     -1.590011    1.958302    1.348115
P     -3.891323    0.774889    0.034049
H     -3.685140    1.853024    -0.870559
P     -3.876214    -0.815347    -1.548065
H     -3.648450    -1.888176    -0.642346
P     -1.720072    -0.710494    -2.221993
H     -1.876131    0.067341    -3.391877
H     -1.551652    -1.968938    -2.844675
