20

Co     0.081377    0.047960    0.009089
S     -0.364456    2.625689    -0.263527
H     0.832237    3.200961    -0.513756
H     -0.829137    2.808827    -1.517712
S     2.659508    0.448391    -0.349389
H     3.170644    -0.701016    -0.841088
H     3.253051    0.324006    0.857619
S     0.592920    -2.512964    0.350003
H     1.113238    -2.662914    1.587575
H     -0.568457    -3.134992    0.649860
S     -2.480208    -0.321649    0.528760
H     -3.177327    -0.551097    -0.604979
H     -3.026682    0.893580    0.748658
S     0.481151    0.521537    2.578352
H     -0.146817    1.676545    2.889899
H     -0.417631    -0.258406    3.217594
P     -0.234363    -0.498564    -2.517717
H     0.886321    -0.381106    -3.366111
H     -0.664530    -1.793322    -2.874830
H     -1.163083    0.271111    -3.248197
