25

Co     0.010170    -0.036792    0.066710
O     0.363293    2.089055    0.632385
H     -0.356254    2.729081    0.493095
P     1.893730    2.923789    0.649332
H     2.351281    2.329640    1.858462
P     3.019237    1.458318    -0.629496
H     2.296164    1.798960    -1.806051
O     2.030940    0.043922    -0.284798
H     2.585356    -0.714146    -0.024071
O     -0.050716    -2.204231    -0.141543
H     -0.413166    -2.558369    -0.974261
P     -0.780455    -2.980801    1.252254
H     -0.043132    -4.201925    1.239345
P     0.720249    -1.941446    2.591052
H     -0.080586    -2.068879    3.763270
O     0.094648    -0.368945    2.056409
H     0.506234    0.382476    2.522107
O     -2.007362    0.221271    0.174382
H     -2.494062    -0.094719    0.957561
P     -3.081199    0.879585    -1.047526
H     -2.512655    2.184505    -1.032762
P     -1.831147    0.225573    -2.788936
H     -2.107094    -1.152355    -2.559033
O     -0.306440    0.240445    -1.914005
H     0.460655    0.389018    -2.493835
