19

Co     0.058224    0.049309    0.019237
S     0.225341    2.544000    0.263548
N     1.866986    2.795831    0.140053
H     2.220655    3.755015    0.218370
N     2.785496    1.886541    -0.071518
H     3.743074    2.247540    -0.133732
S     2.546607    0.245030    -0.227100
S     0.320270    -2.525470    0.160586
N     0.206285    -2.812556    1.794107
H     0.303938    -3.776365    2.129987
N     -0.036313    -1.928512    2.728164
H     -0.093298    -2.307608    3.678615
S     -0.259886    -0.288559    2.515382
S     -2.519556    0.310026    -0.132086
N     -2.803288    0.177737    -1.765040
H     -3.767379    0.265609    -2.102736
N     -1.916363    -0.065388    -2.695755
H     -2.293243    -0.129869    -3.646608
S     -0.274703    -0.273567    -2.479827
