23

Co     -0.048191    0.035878    0.046454
P     -0.340791    2.345381    0.439971
H     -1.570284    2.764402    0.984559
H     0.568888    2.958858    1.323058
H     -0.236246    3.196835    -0.676261
P     2.621099    0.507295    -0.460864
H     3.131277    1.824903    -0.443336
H     3.597760    -0.098283    0.361421
H     3.134677    0.110531    -1.715542
P     0.306916    -2.263380    -0.358459
H     1.552099    -2.799398    0.024301
H     -0.578431    -3.163457    0.265503
H     0.231530    -2.696899    -1.695672
P     -2.733763    -0.412908    0.347775
H     -3.316533    -1.545398    -0.262969
H     -3.300533    -0.562015    1.633785
H     -3.618995    0.567660    -0.151994
P     0.303327    -0.306796    2.339501
H     1.599383    -0.081764    2.842450
H     -0.460888    0.476319    3.226552
H     0.042163    -1.590173    2.858622
C     -0.364731    0.310356    -1.764058
O     -0.562525    0.478518    -2.868800
