16

Co     0.003450    -0.029671    -0.039574
C     -0.336742    2.223775    0.318676
O     -0.520380    3.320764    0.491860
C     2.233002    0.339075    0.379910
O     3.322670    0.503741    0.608942
C     0.353911    -2.282714    -0.319492
O     0.550177    -3.380737    -0.469886
C     -2.243737    -0.419490    -0.350465
O     -3.345916    -0.600607    -0.489329
O     -0.314435    -0.308964    2.001993
H     -0.737333    -1.084016    2.418161
H     -0.006227    0.259988    2.733155
N     0.225943    0.312970    -2.160497
H     -0.260490    1.152765    -2.492445
H     -0.126524    -0.450854    -2.746149
H     1.202623    0.443971    -2.443790
