32

Co     0.119797    0.154211    0.026375
P     -0.145610    2.829969    0.387598
H     -1.415624    3.429537    0.541330
H     0.365057    3.701483    -0.600647
H     0.489122    3.400010    1.511852
P     2.757637    0.587404    0.448890
H     3.659374    -0.485230    0.625929
H     3.076320    1.322573    1.610511
H     3.516453    1.332732    -0.481695
P     0.436295    -2.507463    -0.369599
H     0.325756    -3.041172    -1.673591
H     -0.480931    -3.362310    0.278770
H     1.630491    -3.159964    0.008281
P     -2.504926    -0.271184    -0.425267
H     -3.451503    0.759279    -0.231291
H     -3.142837    -1.285568    0.319910
H     -2.912612    -0.673177    -1.717055
C     -0.501464    -0.654879    4.897870
C     -1.340198    0.211086    4.195142
C     -1.118255    0.405070    2.836293
N     -0.123050    -0.205411    2.155367
C     0.682555    -1.041303    2.847103
C     0.529700    -1.292002    4.206167
H     -0.647570    -0.828853    5.959454
H     -2.155917    0.730411    4.686955
H     -1.759809    1.072883    2.268771
H     1.479999    -1.522052    2.288901
H     1.208955    -1.973427    4.707399
N     0.323236    0.540996    -2.129194
H     -0.243712    1.322721    -2.465043
H     0.058567    -0.260569    -2.705659
H     1.284797    0.764179    -2.396013
