23

Co     -0.005207    0.004377    0.217661
P     -0.477022    2.615541    -0.334936
H     -0.488223    3.759219    0.503242
H     0.333053    3.161233    -1.356926
H     -1.720696    2.852718    -0.963670
P     2.199686    0.265463    -0.474160
H     3.238236    0.582454    0.432342
H     2.787182    -0.839098    -1.118892
H     2.433382    1.256904    -1.445638
P     0.411576    -2.707952    0.401452
H     1.378269    -3.208667    -0.500729
H     0.769814    -3.524236    1.504404
H     -0.663032    -3.505998    -0.055071
P     -2.292551    -0.373968    0.415689
H     -2.763924    -1.603156    -0.081125
H     -2.951991    -0.363175    1.667037
H     -3.133877    0.506260    -0.290965
P     0.359031    0.406955    2.476598
H     1.555126    1.036355    2.883072
H     -0.554084    1.233249    3.165880
H     0.377518    -0.682762    3.372764
C     -0.318636    -0.312176    -1.618888
N     -0.513481    -0.504926    -2.755421
