33

Co     -0.048482    -0.058849    0.251218
C     -0.369586    1.795920    -0.083436
N     -0.578061    2.893053    -0.408211
C     -0.845481    4.195539    -0.919273
H     -0.896644    4.147262    -2.010381
H     -0.046635    4.877255    -0.616791
H     -1.798698    4.553367    -0.522124
C     1.811651    0.203796    -0.108776
N     2.917317    0.341841    -0.442011
C     4.239783    0.488912    -0.950816
H     4.518069    -0.417673    -1.494260
H     4.936033    0.652422    -0.124541
H     4.269711    1.343089    -1.632067
C     0.257269    -1.931876    0.482763
N     0.421654    -3.083066    0.503355
C     0.599631    -4.493354    0.407322
H     0.362142    -4.813969    -0.610592
H     -0.064126    -4.993817    1.116745
H     1.637216    -4.745875    0.639774
C     -1.921604    -0.338180    0.514171
N     -3.068541    -0.527145    0.552782
C     -4.469370    -0.775902    0.479790
H     -5.013165    0.080970    0.885271
H     -4.711101    -1.668528    1.062127
H     -4.750418    -0.930418    -0.565458
C     0.298883    0.355682    2.656995
N     0.455314    0.548528    3.798424
C     0.647121    0.784471    5.191846
H     1.305916    0.016144    5.604494
H     -0.317863    0.749805    5.703945
H     1.100389    1.768535    5.336077
C     -0.347221    -0.415195    -1.796952
N     -0.518058    -0.612758    -2.936724
