19

Co     -0.036426    -0.042004    0.057083
S     0.297914    2.163588    -0.510098
C     1.956864    2.232808    -0.781367
H     2.362644    3.189478    -1.111234
C     2.798392    1.118901    -0.636010
H     3.869325    1.216573    -0.819945
S     2.241145    -0.416022    -0.241700
S     -0.403244    -2.265967    0.453539
C     -0.160606    -2.376940    2.085172
H     -0.273224    -3.355932    2.554487
C     0.184211    -1.242236    2.901072
H     0.327160    -1.382033    3.974077
S     0.378125    0.278826    2.283953
S     -2.312609    0.308247    0.384025
C     -2.907249    0.202741    -1.184619
H     -3.984433    0.325674    -1.306192
C     -2.090978    0.015543    -2.310639
H     -2.523173    0.026555    -3.311480
S     -0.423877    -0.189336    -2.204695
