24

Co     0.030016    -0.011672    0.163496
P     0.427394    2.277278    0.430260
H     -0.621690    3.102367    0.882105
H     1.440950    2.642247    1.338160
H     0.835984    2.996327    -0.710394
P     2.301683    -0.342874    -0.343961
H     3.205706    0.717536    -0.133030
H     2.962925    -1.373309    0.352524
H     2.607678    -0.676381    -1.677771
P     -0.364760    -2.275254    -0.276783
H     0.682650    -3.191712    -0.056500
H     -1.394474    -2.893672    0.459118
H     -0.737535    -2.627304    -1.589205
P     -2.280281    0.366720    0.320056
H     -3.153949    -0.577989    -0.254052
H     -2.840437    0.471126    1.609699
H     -2.772473    1.545178    -0.271822
P     0.361104    -0.459296    2.716009
H     1.660992    -0.464303    3.269337
H     -0.241819    0.425305    3.637999
H     -0.096622    -1.669793    3.283008
S     -0.294352    0.444549    -2.851183
H     -1.401669    0.007624    -3.487017
H     -0.402785    1.703143    -3.325528
