23

Co     0.020297    -0.022037    0.170549
P     -0.262522    2.564249    -0.372017
H     -0.438957    3.663622    0.502573
H     0.788881    3.092306    -1.150493
H     -1.322337    2.850448    -1.259865
P     2.646357    0.380975    0.333585
H     3.113307    1.371481    -0.556549
H     3.444652    0.727593    1.450983
H     3.429882    -0.691148    -0.144292
P     0.403497    -2.646667    0.385737
H     1.636839    -3.084133    -0.142401
H     0.356642    -3.499456    1.515784
H     -0.442875    -3.394038    -0.460607
P     -2.546279    -0.507869    -0.297796
H     -2.787648    -1.712995    -0.990571
H     -3.636217    -0.571661    0.603805
H     -3.123090    0.373919    -1.237376
P     -0.439984    0.392474    2.703639
H     0.516976    1.065642    3.495675
H     -1.564258    1.174779    3.050502
H     -0.684975    -0.695896    3.570559
C     0.354816    -0.326748    -1.780089
N     0.534241    -0.498668    -2.923371
