13

Co     0.009113    -0.029879    -0.004048
C     0.074479    2.309271    0.012855
O     0.068858    3.441339    0.010142
C     2.325777    0.092790    -0.003878
O     3.455762    0.159861    -0.001439
C     -0.088247    -2.362299    -0.022894
O     -0.128160    -3.493681    -0.022742
C     -2.324575    -0.106569    -0.006588
O     -3.456559    -0.113477    -0.010101
N     0.017419    -0.049753    3.190632
C     0.010216    -0.045941    2.021116
N     0.010519    0.031439    -3.198292
C     0.005121    0.004793    -2.029052
