22

Co     -0.041917    0.043561    0.365176
N     -0.002200    2.240331    0.020759
H     -0.814200    2.815192    0.246011
H     0.817622    2.785555    0.285862
H     0.017752    2.125499    -0.996861
N     2.184440    0.068979    -0.029782
H     2.751646    0.893825    0.165351
H     2.769611    -0.738513    0.184673
H     1.999924    0.055436    -1.038122
N     -0.064698    -2.184167    -0.031630
H     0.746114    -2.767540    0.174967
H     -0.886363    -2.754138    0.168643
H     -0.058708    -1.996347    -1.039468
N     -2.238476    -0.002248    0.019309
H     -2.784251    -0.821620    0.284700
H     -2.814090    0.810108    0.241410
H     -2.120969    -0.023928    -0.998011
N     0.114016    -0.115863    2.528174
H     -0.516680    0.503975    3.038230
H     -0.091437    -1.064416    2.842875
H     1.058271    0.101309    2.847877
F     -0.025337    0.025300    -1.575056
