51

Co     0.042975    0.118626    -0.396787
O     -0.222149    0.247082    1.592608
H     0.254581    0.959223    2.059069
H     -1.173209    0.368592    1.801799
O     0.072556    2.460914    -0.350774
C     0.685572    3.103240    0.727599
C     0.127644    4.321391    0.917073
C     -0.889327    4.478904    -0.088380
C     -0.886374    3.348261    -0.832302
H     1.546202    2.601939    1.144981
H     0.416554    5.044498    1.667146
H     -1.436508    3.022851    -1.700780
H     -1.523111    5.341885    -0.240021
O     2.110256    0.165583    -0.089532
C     2.857976    -0.819154    0.572430
C     4.172399    -0.534671    0.454992
C     4.284227    0.679559    -0.313358
C     3.032013    1.075616    -0.626528
H     2.285892    -1.604877    1.036653
H     4.984819    -1.116856    0.868047
H     2.609946    1.898533    -1.179461
H     5.196663    1.189356    -0.591538
O     0.036649    -2.170853    -0.086398
C     -0.164641    -2.778421    1.152188
C     -0.299169    -4.114136    0.991107
C     -0.182780    -4.382593    -0.416827
C     0.017147    -3.193901    -1.031935
H     -0.176980    -2.118473    2.002700
H     -0.460465    -4.836155    1.779433
H     0.177582    -2.900866    -2.056168
H     -0.236348    -5.349389    -0.898512
O     -2.141770    0.028871    -0.396672
C     -2.929443    0.891455    0.387400
C     -4.075164    0.261898    0.735569
C     -4.030677    -1.059344    0.165313
C     -2.862690    -1.166290    -0.503813
H     -2.564048    1.903365    0.472104
H     -4.881232    0.691526    1.315175
H     -2.382786    -1.951898    -1.063607
H     -4.789669    -1.825327    0.247594
C     0.393981    -0.292054    -5.120742
C     -0.757344    0.228880    -4.527768
C     -0.820432    0.317640    -3.143356
N     0.198044    -0.079058    -2.344480
C     1.312869    -0.590389    -2.919769
C     1.441670    -0.710426    -4.298270
H     0.471103    -0.373244    -6.200938
H     -1.601762    0.561007    -5.122667
H     -1.702667    0.699943    -2.646338
H     2.104574    -0.914014    -2.255597
H     2.353240    -1.126807    -4.713370
