31

Co     -0.024873    -0.065700    -0.021185
N     0.285646    2.012579    0.315552
C     0.444785    3.153921    0.430497
C     0.647874    4.588189    0.577086
H     -0.279877    5.121613    0.345183
H     0.944088    4.818561    1.605923
H     1.434582    4.924005    -0.106410
N     2.069125    -0.380193    0.251456
C     3.210051    -0.532431    0.381794
C     4.644471    -0.721784    0.547632
H     5.187499    -0.017390    -0.091202
H     4.925065    -0.546300    1.591322
H     4.921776    -1.743756    0.269241
N     -0.346641    -2.152395    -0.347602
C     -0.532216    -3.286472    -0.493787
C     -0.766424    -4.712202    -0.677331
H     -0.083907    -5.109806    -1.435635
H     -0.598976    -5.241336    0.266725
H     -1.798831    -4.880063    -1.001026
N     -2.111597    0.256913    -0.309753
C     -3.253234    0.438553    -0.380333
C     -4.689400    0.664171    -0.462342
H     -5.134297    -0.016265    -1.195596
H     -5.147344    0.485413    0.516318
H     -4.888465    1.697225    -0.766021
S     -0.543923    -0.332215    2.567296
H     0.505308    0.321134    3.108555
H     -0.028226    -1.553310    2.821842
S     0.501846    0.336077    -2.599019
H     -0.694923    0.092211    -3.173517
H     1.018074    -0.858280    -2.956927
