32

Co     0.025610    0.023285    0.614681
C     0.501287    3.078264    0.919908
N     0.311438    1.940510    0.884775
C     0.744346    4.514804    0.926854
H     0.755118    4.887637    -0.102295
H     1.710670    4.730160    1.393090
H     -0.043124    5.029460    1.485692
C     3.383935    -0.418800    0.588578
N     2.284315    -0.354671    0.944967
C     4.760160    -0.497260    0.111738
H     5.274411    0.452487    0.287118
H     4.762257    -0.707283    -0.962461
H     5.299818    -1.293442    0.633333
C     -0.388996    -2.978507    -0.071172
N     -0.242984    -1.880096    0.251084
C     -0.567934    -4.355712    -0.512411
H     0.369812    -4.908608    -0.401118
H     -0.863318    -4.366159    -1.566306
H     -1.344127    -4.847088    0.081979
C     -3.156643    0.625603    -0.382165
N     -2.231329    0.392148    0.273138
C     -4.304192    0.920143    -1.232827
H     -5.097612    0.184626    -1.069512
H     -3.996440    0.887170    -2.282753
H     -4.695268    1.917237    -1.008784
C     -0.463901    -0.419675    3.679678
N     -0.289786    -0.258826    2.549108
C     -0.680793    -0.623035    5.106807
H     -1.737641    -0.832547    5.298696
H     -0.390097    0.275217    5.660197
H     -0.079892    -1.467042    5.459269
Cl     0.391496    0.350204    -1.597060
