19

Co     -0.019003    -0.003020    -0.016688
P     0.193799    2.422561    -0.596522
H     -0.615523    3.102134    -1.540706
P     1.991186    3.437772    -0.722240
P     3.310070    2.210939    0.606100
P     2.396825    0.357394    0.522215
H     3.134515    -0.398288    1.467231
P     -0.229407    -2.420753    0.586291
H     -0.748907    -3.428944    -0.263437
P     -0.730373    -3.109482    2.471622
P     -0.103694    -1.401414    3.774961
P     -0.208841    0.199457    2.469098
H     0.321900    1.265575    3.237170
P     -2.431388    -0.358675    -0.567945
H     -3.391002    -0.920409    0.310730
P     -3.124243    -0.935891    -2.430169
P     -1.480304    -0.236025    -3.777592
P     0.147274    -0.224099    -2.501095
H     1.167763    0.350166    -3.299253
