15

Co     0.055597    -0.072016    0.011241
C     0.375815    1.817295    0.238350
O     0.567406    2.917674    0.386807
C     2.372952    -0.437235    -0.319387
O     3.474164    -0.625189    -0.463453
C     -0.273261    -1.946860    -0.312094
O     -0.465271    -3.042766    -0.489778
C     -2.238438    0.253387    0.466154
O     -3.330048    0.399450    0.702713
C     0.339520    -0.398016    1.917166
O     0.504376    -0.588068    3.014223
P     -0.289356    0.354276    -2.316680
H     0.848882    0.836234    -2.986728
H     -0.686614    -0.757099    -3.080411
H     -1.281144    1.315307    -2.580688
