37

Co     -0.011506    0.010905    -0.011219
C     0.532091    3.246655    0.493968
N     0.349535    2.116028    0.328207
C     0.763282    4.670220    0.702720
H     0.299707    5.245711    -0.104903
H     1.838465    4.875505    0.713958
H     0.330319    4.983618    1.657959
C     3.239097    -0.445951    -0.527180
N     2.107016    -0.281905    -0.352142
C     4.665009    -0.651406    -0.747057
H     5.187667    0.310168    -0.726486
H     4.829218    -1.126197    -1.719522
H     5.074109    -1.295505    0.037865
C     -0.562577    -3.230224    -0.486198
N     -0.375227    -2.100003    -0.322885
C     -0.799557    -4.653235    -0.692286
H     0.120632    -5.139970    -1.030747
H     -1.576910    -4.795675    -1.449788
H     -1.125377    -5.117353    0.243980
C     -3.252834    0.468445    0.538460
N     -2.121756    0.303409    0.357990
C     -4.677286    0.674486    0.766626
H     -5.068807    -0.116850    1.413850
H     -5.215104    0.653690    -0.186510
H     -4.842233    1.643184    1.248850
C     0.449609    -0.503072    3.233232
N     0.283257    -0.320435    2.103057
C     0.659087    -0.733199    4.656986
H     -0.275361    -1.059398    5.124451
H     0.996072    0.189900    5.139146
H     1.418801    -1.507949    4.801477
C     -0.279995    0.321067    -2.153343
N     -0.423102    0.483085    -3.294623
C     -0.600660    0.683263    -4.698877
H     -1.236882    -0.110750    -5.096947
H     0.374425    0.658349    -5.191184
H     -1.073459    1.654202    -4.865023
