21

Co     0.011710    0.001553    -0.012601
P     -0.353535    2.278499    -0.269028
H     -1.475819    2.853657    0.370289
H     0.620657    3.175875    0.222180
H     -0.536309    2.843009    -1.550916
P     2.599588    0.364657    -0.387228
H     3.196787    1.622250    -0.113223
H     3.503993    -0.389549    0.402475
H     3.253766    0.150798    -1.626957
P     0.338158    -2.271282    0.334788
H     1.654716    -2.789169    0.346217
H     -0.102435    -2.845935    1.547576
H     -0.230616    -3.200170    -0.563803
P     -2.602909    -0.378597    0.334915
H     -3.191228    -1.633778    0.031965
H     -3.291656    -0.179172    1.558837
H     -3.488381    0.380936    -0.470714
C     0.309700    0.322776    1.856530
N     0.509100    0.528361    2.990987
C     -0.282830    -0.313406    -1.881655
N     -0.479499    -0.510566    -3.017809
