22

Co     -0.112629    -0.144942    -0.085605
O     -0.401820    1.897755    0.449384
H     -1.175117    2.448819    0.237327
H     0.385949    2.458267    0.336712
O     1.937318    0.371037    0.260444
H     2.578947    0.346905    -0.470185
H     2.430153    0.147233    1.069295
O     0.207865    -2.225484    -0.239778
H     -0.608142    -2.736814    -0.385720
H     0.904655    -2.652288    -0.767518
O     -2.158988    -0.638995    -0.358162
H     -2.706646    -0.485610    -1.146923
H     -2.742800    -0.598505    0.419312
O     -0.588811    -0.470974    1.946113
H     -0.354741    -1.272652    2.445540
H     -0.548739    0.284443    2.558120
N     0.235763    0.195868    -2.163181
C     0.374635    0.387359    -3.298917
C     0.551311    0.626360    -4.723423
H     1.599849    0.468808    -4.999325
H     -0.076942    -0.063326    -5.297645
H     0.268899    1.656777    -4.965672
