49

Co     0.014996    0.007755    -0.018618
C     0.232239    0.348409    2.080969
N     0.347273    0.525238    3.221692
C     0.491690    0.741137    4.630909
H     1.362138    0.184851    4.987102
H     -0.409261    0.386397    5.137157
H     0.626827    1.809857    4.813604
C     -0.158188    -0.282116    -2.127475
N     -0.212647    -0.401638    -3.280015
C     -0.269901    -0.543727    -4.704719
H     -0.356543    -1.604507    -4.952099
H     0.645158    -0.130833    -5.136145
H     -1.138021    0.002705    -5.081647
O     -0.009451    2.165186    -0.356166
C     -1.147204    2.962130    -0.518762
C     -0.773918    4.237829    -0.753910
C     0.666760    4.269465    -0.748783
C     1.093360    3.011765    -0.507434
H     -2.089458    2.451534    -0.417983
H     -1.439656    5.075065    -0.911904
H     2.056506    2.537378    -0.422787
H     1.296517    5.133517    -0.909677
O     2.286028    -0.057528    -0.109103
C     3.233386    0.423803    0.798367
C     4.468059    0.018308    0.427678
C     4.314965    -0.765314    -0.770529
C     2.996168    -0.788054    -1.062395
H     2.848512    1.031735    1.599878
H     5.393231    0.248857    0.937861
H     2.405703    -1.243561    -1.839827
H     5.102359    -1.244236    -1.335971
O     -0.011387    -2.119540    0.332656
C     0.990998    -2.908323    0.906508
C     0.550227    -4.178806    1.022326
C     -0.796100    -4.214136    0.506869
C     -1.102676    -2.963816    0.101979
H     1.911578    -2.397964    1.135214
H     1.110096    -5.011324    1.425587
H     -1.972112    -2.490912    -0.323119
H     -1.445791    -5.076928    0.455223
O     -2.282473    0.019859    0.080160
C     -3.021630    0.151741    1.257299
C     -4.341173    0.191697    0.972398
C     -4.466829    0.078892    -0.457344
C     -3.216380    -0.022281    -0.959150
H     -2.445674    0.187536    2.166034
H     -5.145818    0.288317    1.687988
H     -2.808357    -0.119053    -1.950689
H     -5.384611    0.073355    -1.029272
