47

Co     -0.000126    -0.000919    0.000977
N     -0.324474    2.143491    -0.281854
C     -0.403603    3.286279    -0.450033
C     -0.503433    4.725186    -0.659998
H     -0.295939    4.965267    -1.707646
H     -1.510530    5.071753    -0.407235
H     0.221156    5.244864    -0.024869
N     2.131502    0.335489    -0.342789
C     3.243161    0.597673    -0.532133
C     4.642388    0.927982    -0.771731
H     4.717708    1.662260    -1.580174
H     5.087583    1.349229    0.135235
H     5.196612    0.027946    -1.056441
N     0.324131    -2.145209    0.284166
C     0.404494    -3.287519    0.454981
C     0.506790    -4.725730    0.668591
H     0.455563    -5.250377    -0.290757
H     1.457920    -4.964803    1.154965
H     -0.314428    -5.067479    1.306534
N     -2.132087    -0.336694    0.342889
C     -3.245419    -0.595760    0.526611
C     -4.647085    -0.921350    0.758297
H     -5.253800    -0.010904    0.721934
H     -5.000938    -1.616550    -0.009648
H     -4.763565    -1.386908    1.742234
C     0.633677    0.790399    4.869563
C     -0.409169    1.412195    4.182586
C     -0.557554    1.165690    2.821784
N     0.263743    0.349824    2.133355
C     1.268555    -0.247800    2.803129
C     1.487966    -0.056339    4.163179
H     0.777071    0.961613    5.932065
H     -1.099550    2.078273    4.689291
H     -1.357835    1.629940    2.255825
H     1.914017    -0.898505    2.222332
H     2.312714    -0.562335    4.653892
C     -0.632844    -0.793311    -4.867894
C     -1.485700    0.055737    -4.162573
C     -1.266666    0.247629    -2.802502
N     -0.263607    -0.351793    -2.131728
C     0.556331    -1.169885    -2.819136
C     0.408266    -1.416901    -4.179879
H     -0.775971    -0.964921    -5.930370
H     -2.309115    0.563151    -4.654061
H     -1.911018    0.900197    -2.222586
H     1.355326    -1.635389    -2.252352
H     1.097593    -2.084647    -4.685832
