49

Co     0.081170    -0.007443    -0.147376
O     -0.197169    0.038366    1.963920
H     0.456994    0.237743    2.655361
H     -1.083323    0.259699    2.307051
O     0.019495    2.189147    -0.191919
C     0.328380    3.091438    0.836862
C     -0.132347    4.318501    0.514185
C     -0.766130    4.212387    -0.776796
C     -0.655389    2.927515    -1.174597
H     0.878859    2.683545    1.668071
H     -0.032933    5.212906    1.114013
H     -0.953965    2.373826    -2.049288
H     -1.235220    5.011484    -1.334525
O     2.186177    0.033588    0.085907
C     2.999700    -1.027322    0.520423
C     4.278662    -0.606919    0.597695
C     4.303413    0.778995    0.200775
C     3.037576    1.136294    -0.099901
H     2.488691    -1.959018    0.698682
H     5.126715    -1.207392    0.897310
H     2.556980    2.041331    -0.431182
H     5.172398    1.421280    0.153285
O     0.101432    -2.173226    -0.154044
C     -0.066530    -3.007280    0.960871
C     0.022095    -4.297149    0.572038
C     0.258485    -4.302680    -0.850327
C     0.299714    -3.016412    -1.258232
H     -0.248871    -2.493131    1.889135
H     -0.071959    -5.161855    1.215022
H     0.460999    -2.517293    -2.199219
H     0.383521    -5.172349    -1.480902
O     -2.133495    -0.088143    -0.122480
C     -2.887165    0.873274    0.568464
C     -4.047413    0.318224    0.985945
C     -4.047789    -1.055501    0.551420
C     -2.886921    -1.267676    -0.104744
H     -2.474744    1.869676    0.568636
H     -4.837048    0.826423    1.522705
H     -2.432564    -2.113532    -0.594097
H     -4.832928    -1.782638    0.706051
O     0.077316    0.044711    -2.279891
C     -1.038438    -0.093378    -3.124198
C     -0.651261    0.082465    -4.404950
C     0.767416    0.344189    -4.396723
C     1.176148    0.318169    -3.111724
H     -1.969348    -0.303465    -2.625050
H     -1.293132    0.031097    -5.274085
H     2.119010    0.450163    -2.607198
H     1.394615    0.527309    -5.258577
