17

Co     -0.055336    0.005304    0.343319
S     -0.520490    2.668886    0.719849
H     0.515729    3.325185    1.284939
H     -0.148032    2.950574    -0.545699
S     2.317826    0.354701    0.709776
H     2.864303    -0.874788    0.580888
H     2.611054    0.721267    -0.557057
S     0.386272    -2.664360    -0.124034
H     0.259408    -2.536911    -1.460272
H     -0.730942    -3.407996    0.023154
S     -2.425060    -0.341338    -0.071897
H     -3.050431    0.737850    0.449144
H     -2.445442    0.121581    -1.340021
S     -0.469076    -0.384131    2.703823
H     0.245861    -1.494135    2.987849
H     0.399449    0.443796    3.322853
Cl     0.259577    0.369056    -1.873062
