20

Co     -0.000492    0.026902    -0.059911
O     -0.389608    2.025615    -0.520048
H     0.208787    2.785198    -0.411606
H     -1.283748    2.325190    -0.276166
O     2.155884    0.144711    -0.354509
H     2.603259    0.469791    -1.155056
H     2.774232    0.311510    0.377690
O     0.419660    -1.963207    0.477139
H     1.259678    -2.330291    0.147877
H     -0.227831    -2.690504    0.466206
O     -2.131041    -0.021721    0.348880
H     -2.355881    -0.026429    1.295669
H     -2.901929    -0.384024    -0.120797
O     0.174792    0.324756    1.930805
H     0.474247    1.124128    2.397773
H     0.481618    -0.455695    2.426696
N     -0.272322    -0.372713    -2.011545
H     -1.105611    -0.931967    -2.210857
H     -0.389359    0.510091    -2.516781
H     0.505799    -0.869625    -2.453029
