15

Co     -0.093464    0.068489    0.073021
O     0.129591    2.130343    -0.297228
H     0.196313    2.154012    -1.275734
H     0.984211    2.437804    0.050716
O     2.056561    -0.151405    -0.086019
H     2.260032    -0.334494    0.851750
H     2.138696    -1.006368    -0.545723
O     0.036475    -2.179932    0.018517
H     -0.293226    -2.401253    0.909010
H     -0.662583    -2.432983    -0.610026
O     -2.196307    -0.310795    0.198550
H     -2.601606    0.209688    0.914648
H     -2.571527    -0.011988    -0.652474
I     0.049717    0.063387    2.815281
I     -0.561956    -0.059873    -2.750586
