33

Co     0.005938    -0.001267    -0.000344
C     0.398703    2.166026    -0.317453
N     0.596991    3.299221    -0.486220
C     0.840324    4.694873    -0.694954
H     1.844771    4.825673    -1.104526
H     0.758992    5.218318    0.260695
H     0.099435    5.086378    -1.396020
C     2.183435    -0.276357    0.338068
N     3.322264    -0.425696    0.518372
C     4.725014    -0.611116    0.738780
H     5.048603    -1.523348    0.231922
H     4.909469    -0.698573    1.812193
H     5.267173    0.248677    0.338161
C     -0.394500    -2.165075    0.312474
N     -0.600667    -3.298016    0.473668
C     -0.851804    -4.693948    0.671528
H     -1.527647    -5.050009    -0.109636
H     -1.310710    -4.838512    1.652567
H     0.094392    -5.237882    0.621083
C     -2.181388    0.254678    -0.332304
N     -3.324718    0.383110    -0.501297
C     -4.733038    0.542154    -0.706727
H     -5.008911    1.579948    -0.505010
H     -5.270956    -0.124167    -0.028208
H     -4.974030    0.289815    -1.742194
N     -0.252048    0.379931    2.170964
H     -1.164014    0.787885    2.382974
H     -0.196406    -0.485272    2.710346
H     0.448744    1.012435    2.559601
N     0.278492    -0.293884    -2.182036
H     -0.468715    0.138840    -2.727257
H     1.156038    0.095115    -2.530005
H     0.280221    -1.283674    -2.433561
