25
03/24/2023 16:57, XYZ structure generated by mol3D Class, molSimplify
Co     -0.018555    0.060667    0.001802
N     -0.289055    1.965290    -0.245954
N     -0.640896    2.707966    0.670345
H     -0.790490    3.714388    0.506652
H     -0.783182    2.346454    1.635720
N     2.170527    0.561071    0.172856
N     2.995411    0.274886    1.030205
H     3.972216    0.620197    0.980902
H     2.803822    -0.320186    1.861839
N     0.243955    -1.827002    0.249887
N     0.517228    -2.594626    -0.677579
H     0.623145    -2.246033    -1.652060
H     0.646716    -3.602720    -0.510637
N     -2.249323    -0.183338    -0.136009
N     -2.928411    -0.567762    -1.078692
H     -3.963711    -0.598793    -1.025768
H     -2.543765    -0.888770    -1.990353
N     -0.347661    0.274141    1.896005
N     -0.468658    -0.690316    2.652709
H     -0.365757    -1.664645    2.302319
H     -0.694612    -0.558516    3.649555
N     0.313015    -0.139584    -1.885177
N     0.539654    0.841174    -2.595975
H     0.484656    1.804248    -2.206865
H     0.783728    0.733492    -3.591165
