17

Co     -0.125683    -0.065534    0.027310
S     0.301555    2.424833    0.377601
H     0.193226    2.603697    1.713315
H     1.649183    2.537854    0.363585
S     2.430600    -0.427478    -0.383234
H     2.818385    -1.369182    0.505703
H     2.513953    -1.259951    -1.445297
S     -0.512160    -2.540055    -0.421594
H     -0.803719    -3.086931    0.780399
H     -1.775944    -2.658484    -0.887972
S     -2.628666    0.588661    0.535118
H     -3.403786    -0.471602    0.220877
H     -3.023229    1.322888    -0.528794
C     0.112693    -0.389263    1.859612
O     0.253584    -0.585834    2.963796
C     -0.383672    0.275054    -1.814000
O     -0.547842    0.483787    -2.911959
