25

Co     -0.223483    -0.192551    0.039771
S     0.178654    2.400388    -0.158386
H     1.192155    2.507620    0.740449
O     1.085631    2.428341    -1.583338
H     1.122153    3.348820    -1.916058
S     2.278691    -0.796619    -0.579175
H     2.858203    0.398345    -0.852810
O     2.817916    -1.025367    1.007571
H     3.680645    -1.487412    0.993789
S     -0.782345    -2.722623    0.453467
H     0.364436    -3.174773    1.026253
O     -1.665086    -2.333115    1.832916
H     -2.184173    -3.117391    2.107392
S     -2.773146    0.255199    0.383923
H     -3.357173    -0.890423    -0.050975
O     -2.893505    1.182151    -1.013171
H     -3.703914    1.727725    -0.951329
S     0.075296    0.242074    2.505709
H     0.125596    -0.959466    3.133340
O     1.623224    0.814245    2.671465
H     2.247346    0.193593    2.224323
S     -0.473944    -0.547483    -2.458913
H     -1.322608    0.413084    -2.904012
O     1.003890    0.032812    -2.986311
H     1.082666    0.977554    -2.715035
