26

Co     -0.026371    -0.018917    0.115283
C     -0.060582    -0.042658    -1.853116
O     -0.085478    -0.053587    -2.981832
O     0.304369    1.995414    0.083560
H     1.273876    2.115934    0.120413
H     -0.035069    2.598386    -0.601545
O     2.251231    0.052668    0.135221
H     2.872118    -0.184057    -0.577335
H     2.725335    -0.155376    0.960127
O     -0.352234    -2.037591    0.137428
H     -0.018433    -2.664191    -0.529790
H     -1.318001    -2.170591    0.205004
O     -2.291178    -0.061987    0.197960
H     -2.751443    0.163611    1.025595
H     -2.921544    0.162765    -0.510038
C     0.065573    0.046049    4.857040
C     -0.446559    1.129173    4.140147
C     -0.455515    1.078173    2.751747
N     0.007059    0.003639    2.069448
C     0.495334    -1.051585    2.764122
C     0.545070    -1.060003    4.152611
H     0.090337    0.063604    5.942583
H     -0.830986    2.010520    4.642758
H     -0.822073    1.908413    2.161315
H     0.833038    -1.899887    2.182503
H     0.950065    -1.925297    4.666530
