37

Co     -0.001924    -0.006222    0.039714
C     0.384665    2.144247    -0.264650
N     0.585755    3.278004    -0.422755
C     0.832044    4.672873    -0.618713
H     1.817808    4.803567    -1.071375
H     0.797884    5.182335    0.347266
H     0.064249    5.082534    -1.279430
C     2.164437    -0.287742    0.336269
N     3.307142    -0.435235    0.488320
C     4.713101    -0.617123    0.675520
H     5.024356    -1.541108    0.182523
H     4.927247    -0.678082    1.745242
H     5.245372    0.232110    0.240374
C     -0.371781    -2.165208    0.282424
N     -0.562337    -3.304704    0.408174
C     -0.795272    -4.706992    0.563339
H     -1.432308    -5.056679    -0.252617
H     -1.290221    -4.884645    1.521054
H     0.161296    -5.234325    0.537618
C     -2.162148    0.259235    -0.314261
N     -3.302152    0.398003    -0.492968
C     -4.704751    0.569436    -0.712120
H     -4.981899    1.599574    -0.475910
H     -5.254999    -0.119082    -0.066295
H     -4.933170    0.356027    -1.759087
C     -0.344508    0.389013    2.178917
N     -0.520313    0.594287    3.309204
C     -0.734893    0.846167    4.700412
H     -0.293791    0.033639    5.282824
H     -1.808900    0.898840    4.894092
H     -0.262302    1.793509    4.970422
C     0.488411    -0.538790    -3.246221
N     0.326607    -0.365797    -2.113027
C     0.692282    -0.757030    -4.672825
H     1.660992    -1.237905    -4.842105
H     0.673002    0.200499    -5.202965
H     -0.099336    -1.400368    -5.069765
