27

Co     0.085601    -0.087181    0.021107
N     -0.157406    2.120182    0.354581
H     -1.139166    2.372323    0.487344
H     0.331438    2.508094    1.164488
H     0.151316    2.674681    -0.446992
N     2.281515    0.216257    -0.328087
H     2.519804    1.210023    -0.337218
H     2.912117    -0.206512    0.357298
H     2.584331    -0.138609    -1.237580
N     0.307072    -2.286574    -0.359618
H     1.286486    -2.552558    -0.483697
H     -0.057127    -2.926783    0.349814
H     -0.153479    -2.553313    -1.232482
N     -2.120852    -0.388298    0.331616
H     -2.349490    -1.380289    0.421234
H     -2.551490    0.060808    1.143037
H     -2.656462    -0.063907    -0.476930
N     0.412579    -0.336912    2.220105
H     -0.385407    -0.026835    2.778620
H     0.566932    -1.309712    2.493963
H     1.215536    0.175858    2.591488
C     -0.228072    0.201781    -2.197226
N     -0.385739    0.358156    -3.338773
C     -0.582019    0.553340    -4.746577
H     -1.206514    -0.255059    -5.134279
H     0.389942    0.545845    -5.245754
H     -1.075248    1.515152    -4.906479
