32

Co     0.014311    -0.086878    -0.045225
P     -0.317847    2.241496    -0.282150
H     0.224621    3.081607    0.709858
H     -1.625379    2.768060    -0.347792
H     0.222867    2.840410    -1.438782
P     2.319792    0.340928    0.096498
H     3.162559    -0.651204    0.635879
H     2.722985    1.441712    0.877819
H     3.020621    0.616934    -1.096179
P     0.330096    -2.415869    0.124685
H     -0.298643    -3.070795    1.201959
H     1.626159    -2.962061    0.231977
H     -0.154592    -3.194615    -0.946711
P     -2.295544    -0.464570    -0.112054
H     -3.098317    0.243571    0.802818
H     -2.792919    -1.766148    0.104765
H     -2.964852    -0.157320    -1.314790
C     -0.069974    0.311439    5.124975
C     -0.937884    1.067160    4.335929
C     -0.887929    0.917979    2.953068
N     -0.041281    0.078974    2.321351
C     0.790689    -0.643536    3.101476
C     0.812704    -0.562637    4.490284
H     -0.081851    0.401078    6.206782
H     -1.645188    1.760081    4.779572
H     -1.562951    1.494193    2.325822
H     1.473788    -1.317724    2.591226
H     1.508305    -1.173182    5.056507
N     0.121227    -0.259823    -2.407508
H     -0.525188    0.356154    -2.906365
H     -0.090797    -1.194814    -2.763402
H     1.040478    -0.040689    -2.798566
