35

Co     0.053165    -0.066301    0.168893
C     0.425716    2.075303    -0.163100
N     0.617289    3.209262    -0.330512
C     0.851528    4.605780    -0.536393
H     1.833671    4.740753    -0.995589
H     0.818495    5.119633    0.427265
H     0.076403    5.004433    -1.195299
C     2.212663    -0.338292    0.419770
N     3.357328    -0.477892    0.564071
C     4.766405    -0.648297    0.746613
H     5.069457    -1.608663    0.322828
H     4.992789    -0.626159    1.815309
H     5.293144    0.163720    0.239588
C     -0.329004    -2.212900    0.375504
N     -0.528881    -3.351292    0.496281
C     -0.773228    -4.753087    0.648020
H     -1.409019    -5.095753    -0.171922
H     -1.273882    -4.927340    1.603351
H     0.180059    -5.286441    0.625462
C     -2.095584    0.217229    -0.202311
N     -3.233286    0.368969    -0.384361
C     -4.634243    0.556620    -0.606809
H     -4.895952    1.594356    -0.386914
H     -5.193089    -0.113959    0.050373
H     -4.865063    0.329472    -1.650386
C     -0.283133    0.328795    2.300677
N     -0.458747    0.531984    3.430850
C     -0.673539    0.780258    4.823105
H     -0.002215    0.145327    5.406309
H     -1.711872    0.549196    5.072584
H     -0.466192    1.831729    5.035860
P     0.481855    -0.556295    -2.469138
H     1.189557    0.381548    -3.253878
H     1.228793    -1.704552    -2.815003
H     -0.609580    -0.762491    -3.342380
