31

Co     -0.036404    -0.017250    -0.003282
N     0.297081    1.942392    -0.254711
H     0.220198    2.478970    0.613608
C     0.620218    2.659063    -1.262590
H     0.733684    2.194584    -2.239898
H     0.786308    3.734414    -1.181788
N     1.935803    -0.258438    0.244224
H     2.482993    0.548111    -0.066748
C     2.667995    -1.196112    0.711102
H     2.209398    -2.111242    1.078010
H     3.754790    -1.115561    0.757025
N     -0.357676    -1.975195    0.251851
H     -0.167993    -2.532860    -0.585346
C     -0.781624    -2.672588    1.235572
H     -1.014906    -2.185469    2.180119
H     -0.915779    -3.753221    1.167505
N     -2.010501    0.224504    -0.268816
H     -2.540166    -0.645400    -0.174585
C     -2.761734    1.226978    -0.522880
H     -2.326561    2.215724    -0.646714
H     -3.843679    1.130787    -0.622827
N     -0.335820    0.433949    2.256631
H     -1.307533    0.631673    2.515992
C     0.444969    0.546432    3.261030
H     1.512752    0.368696    3.131167
H     0.105607    0.815441    4.264129
N     0.250817    -0.465508    -2.266858
H     1.207380    -0.710813    -2.541862
C     -0.546905    -0.524650    -3.262596
H     -1.601408    -0.289312    -3.117064
H     -0.234622    -0.800710    -4.272543
