19

Co     -0.001063    -0.009410    -0.072288
P     -0.378831    2.578412    -0.315459
H     -1.496520    3.127834    0.359334
H     0.576494    3.477148    0.217408
H     -0.582099    3.238177    -1.552252
P     2.567622    0.429514    -0.418772
H     3.149352    1.571188    0.182363
H     3.468422    -0.511945    0.136410
H     3.196537    0.545832    -1.682883
P     0.388473    -2.555118    0.435623
H     -0.385003    -3.158490    1.456349
H     0.269943    -3.594612    -0.519853
H     1.649681    -2.935316    0.955050
P     -2.578585    -0.454184    0.229269
H     -3.100833    -1.655020    -0.307369
H     -3.278910    -0.486889    1.461509
H     -3.462736    0.416425    -0.452535
Cl     0.377549    0.361326    2.233309
Cl     -0.379382    -0.384849    -2.361236
