31

Co     -0.073841    0.009660    0.075897
P     0.501520    2.522362    0.361762
H     -0.024586    3.521475    -0.487759
H     0.260353    3.166068    1.596668
C     2.307771    2.738439    0.151602
H     2.714540    3.744165    0.248453
C     3.120764    1.708343    -0.115533
H     4.190358    1.874522    -0.236566
P     2.498493    -0.005940    -0.286022
H     3.045064    -0.402946    -1.527474
H     3.374634    -0.728106    0.555133
P     -0.384625    -2.567005    0.049971
H     -1.592214    -3.174664    -0.361226
H     0.507649    -3.387794    -0.676138
C     -0.194259    -3.196361    1.759378
H     -0.300061    -4.268270    1.920905
C     0.063398    -2.383800    2.792176
H     0.167402    -2.792425    3.796419
P     0.257662    -0.575688    2.578997
H     -0.622000    -0.056955    3.555872
H     1.474002    -0.319070    3.250770
P     -2.646175    0.336573    0.203331
H     -3.511153    -0.657935    0.712518
H     -3.188548    1.442938    0.895651
C     -3.288985    0.581795    -1.494384
H     -4.362865    0.716311    -1.617130
C     -2.483364    0.597037    -2.564114
H     -2.899443    0.744014    -3.559884
P     -0.670366    0.383107    -2.416737
H     -0.406804    -0.627611    -3.368590
H     -0.174052    1.482603    -3.152781
