13

Co     0.037828    0.031952    0.023555
C     -0.270883    2.209386    -0.251998
S     -0.479888    3.700891    -0.438118
C     2.191647    0.369909    -0.374194
S     3.666925    0.599028    -0.645961
C     0.346097    -2.145515    0.298843
S     0.554384    -3.637233    0.484106
C     -2.115866    -0.306492    0.421478
S     -3.591033    -0.535519    0.693923
C     0.299284    0.419889    2.189849
S     0.480533    0.682445    3.673406
C     -0.223939    -0.355864    -2.143369
S     -0.404011    -0.618875    -3.626987
