19

Co     -0.015640    -0.020542    -0.227953
S     -0.322120    2.411025    0.306389
H     0.813868    3.057083    -0.037309
H     0.086387    2.126807    1.562517
S     2.630105    0.443677    -0.524412
H     3.365747    -0.585786    -0.997554
H     2.754229    0.088899    0.770816
S     0.357415    -2.447397    -0.650356
H     -0.779123    -3.088023    -0.298030
H     1.028614    -2.831364    0.456091
S     -2.585022    -0.460203    0.331250
H     -2.499428    0.094346    1.556148
H     -3.430576    0.473936    -0.153798
O     0.292591    -0.143353    1.567638
H     0.203506    -1.043015    1.918296
P     -0.399398    0.383653    -2.542176
H     -1.657118    0.872398    -2.955836
H     -0.263045    -0.670193    -3.471300
H     0.419024    1.338032    -3.182368
