59

Co     -0.004722    0.005954    -0.260460
O     -0.002241    -0.004655    1.800617
H     0.805886    -0.027335    2.344788
H     -0.701889    0.428482    2.321494
C     -0.296633    4.846123    -0.110122
C     -0.868436    4.142186    -1.169752
C     -0.769373    2.754618    -1.199037
N     -0.130816    2.047117    -0.239099
C     0.426289    2.738239    0.787289
C     0.359842    4.121663    0.887246
H     -0.358446    5.929255    -0.061506
H     -1.389941    4.654100    -1.972215
H     -1.217745    2.197255    -2.007698
H     0.944410    2.161527    1.539344
H     0.825473    4.616708    1.733224
C     4.785902    0.346673    0.406101
C     4.050285    -0.715282    0.934464
C     2.686143    -0.791507    0.677973
N     2.026293    0.135108    -0.063595
C     2.744772    1.171569    -0.562165
C     4.113079    1.304244    -0.355205
H     5.854642    0.425463    0.582149
H     4.520966    -1.487828    1.534042
H     2.105108    -1.620111    1.061317
H     2.203243    1.901829    -1.148253
H     4.634060    2.152469    -0.787435
C     0.310496    -4.818817    -0.016135
C     -0.336968    -4.077591    0.973989
C     -0.411196    -2.695520    0.850374
N     0.125007    -2.027468    -0.202030
C     0.753965    -2.750534    -1.156959
C     0.864026    -4.135084    -1.098585
H     0.383339    -5.899639    0.055889
H     -0.785647    -4.557424    1.837974
H     -0.904336    -2.100473    1.604249
H     1.188438    -2.208181    -1.982635
H     1.382012    -4.659309    -1.894787
C     -4.781280    -0.409855    0.473503
C     -4.065499    0.682891    0.965536
C     -2.709761    0.791854    0.676787
N     -2.036619    -0.130865    -0.056647
C     -2.737137    -1.194423    -0.522482
C     -4.096856    -1.360393    -0.285694
H     -5.843651    -0.516133    0.673516
H     -4.546577    1.452289    1.561154
H     -2.147276    1.649234    1.024078
H     -2.189531    -1.922099    -1.105786
H     -4.601776    -2.230620    -0.692488
C     -0.015928    -0.040304    -5.085478
C     1.178122    -0.091782    -4.367210
C     1.143125    -0.078123    -2.977486
N     -0.011994    -0.014028    -2.268968
C     -1.169967    0.038060    -2.974191
C     -1.207631    0.025987    -4.364314
H     -0.017570    -0.051069    -6.171498
H     2.140000    -0.144859    -4.866915
H     2.065436    -0.136704    -2.422721
H     -2.091166    0.107194    -2.417983
H     -2.170120    0.070493    -4.863494
