19

Co     0.000474    0.000510    0.000910
C     -0.019697    2.180003    -0.019314
N     -0.021338    3.333294    -0.020952
H     -0.020277    4.351261    -0.019881
C     2.179968    -0.019589    -0.018891
N     3.333261    -0.021169    -0.020472
H     4.351227    -0.020057    -0.019825
C     0.019540    -2.179237    0.019927
N     0.020819    -3.332532    0.021180
H     0.019484    -4.350495    0.019826
C     -2.179235    0.019492    0.019761
N     -3.332531    0.020723    0.021076
H     -4.350495    0.019353    0.020174
C     -0.019240    -0.019543    2.180390
N     -0.020793    -0.021089    3.333682
H     -0.020125    -0.019942    4.351648
C     0.019391    0.019468    -2.178818
N     0.020715    0.020676    -3.332114
H     0.019820    0.019285    -4.350078
