33

Co     -0.002029    0.012761    -0.000214
C     1.418120    2.713605    -0.456873
N     0.880307    1.700808    -0.287219
C     2.092486    3.983123    -0.669178
H     2.101713    4.225114    -1.739121
H     3.125679    3.920563    -0.306368
H     1.568141    4.778689    -0.125719
C     2.727234    -1.340058    0.516443
N     1.705675    -0.827966    0.319816
C     4.008029    -1.980404    0.763277
H     4.819999    -1.257284    0.618823
H     4.145200    -2.818774    0.069249
H     4.042134    -2.358249    1.792640
C     -1.388899    -2.712980    0.456167
N     -0.874948    -1.687784    0.284287
C     -2.032029    -3.998132    0.671307
H     -1.271766    -4.769770    0.843573
H     -2.626547    -4.269436    -0.209757
H     -2.692370    -3.942434    1.545523
C     -2.749992    1.326372    -0.513730
N     -1.715188    0.840949    -0.319902
C     -4.046909    1.935346    -0.755948
H     -4.731541    1.690184    0.065329
H     -4.464972    1.556855    -1.696883
H     -3.940749    3.025006    -0.822609
N     -0.162272    0.457899    1.927608
H     -0.601527    1.372722    2.063601
H     -0.738355    -0.232841    2.416840
H     0.748261    0.480626    2.395291
N     0.142041    -0.396126    -1.939134
H     -0.078838    0.425599    -2.507864
H     1.091127    -0.691601    -2.183422
H     -0.497323    -1.145865    -2.215580
