15

Co     0.004432    -0.085263    -0.024625
O     -0.195281    1.828112    0.258708
H     -0.478626    2.289805    -0.552607
H     -0.752822    2.088430    1.014792
O     1.898465    0.092930    0.297225
H     2.254620    0.844979    -0.213606
H     1.989478    0.297025    1.250105
O     0.242004    -1.970026    -0.294658
H     1.155028    -2.139491    -0.599256
H     0.171965    -2.334617    0.612916
O     -1.856093    -0.476078    -0.400002
H     -2.536045    0.111524    -0.026947
H     -1.906195    -0.437600    -1.377147
F     -0.228785    -0.359361    1.706105
F     0.238485    0.248799    -1.743838
