21

Co     0.000118    0.000371    -0.000067
O     0.277300    1.885483    -0.402429
H     1.178288    2.255540    -0.274464
H     -0.363550    2.595780    -0.181718
O     1.938880    -0.202576    -0.145763
H     2.410736    -0.203090    -1.006961
H     2.489796    -0.730150    0.473674
O     -0.276243    -1.884849    0.402559
H     0.362524    -2.595741    0.177696
H     -1.178279    -2.253710    0.278529
O     -1.938405    0.203623    0.146609
H     -2.409345    0.208032    1.008271
H     -2.490960    0.726523    -0.475305
N     0.209441    0.326118    1.970045
H     -0.361773    1.097161    2.339356
H     -0.031405    -0.514736    2.512729
H     1.176646    0.565718    2.223502
N     -0.209270    -0.325559    -1.970154
H     -1.175152    -0.570435    -2.223641
H     0.027135    0.516879    -2.512331
H     0.366230    -1.093103    -2.340072
