35

Co     -0.065545    -0.064027    0.049126
C     0.375725    3.101457    -0.492158
N     0.213710    1.961957    -0.334732
C     0.578804    4.525341    -0.688223
H     0.334287    4.795943    -1.723235
H     1.625147    4.784698    -0.488690
H     -0.071602    5.091268    -0.010542
C     3.085945    -0.592463    -0.475472
N     1.950160    -0.402299    -0.320850
C     4.504396    -0.830441    -0.668823
H     4.997320    0.090103    -1.002725
H     4.651964    -1.615103    -1.420928
H     4.956415    -1.156682    0.276410
C     -0.528178    -3.233335    0.507735
N     -0.367980    -2.099555    0.308494
C     -0.728453    -4.649055    0.754343
H     0.237148    -5.167861    0.767111
H     -1.358117    -5.078238    -0.035400
H     -1.229167    -4.790162    1.720251
C     -3.239322    0.430717    0.481931
N     -2.106667    0.255229    0.291338
C     -4.654456    0.649311    0.718526
H     -4.963138    0.126221    1.632081
H     -5.236946    0.258866    -0.125451
H     -4.855349    1.721157    0.829898
C     0.459183    0.388024    3.200666
N     0.268883    0.225016    2.064353
C     0.695824    0.591230    4.615467
H     -0.258215    0.580909    5.157518
H     1.189371    1.558117    4.775616
H     1.338359    -0.208930    5.004127
N     -0.406823    -0.281558    -2.047648
H     -1.270053    0.195753    -2.321194
H     0.371774    0.114258    -2.580957
H     -0.493698    -1.274894    -2.279939
