13

Co     0.009448    0.000643    0.015150
N     0.278292    1.887055    0.320478
P     0.480400    3.340270    0.547725
N     1.895920    -0.304511    0.283848
P     3.349166    -0.531381    0.486168
N     -0.259356    -1.885788    -0.290221
P     -0.461520    -3.339014    -0.517344
N     -1.877014    0.305796    -0.253559
P     -3.330259    0.532601    -0.455938
N     -0.295655    -0.268356    1.901599
P     -0.522501    -0.470992    3.354804
N     0.314530    0.269652    -1.871271
P     0.541552    0.472313    -3.324445
