33

Co     0.009816    -0.000648    0.001985
C     0.474330    3.171002    0.485987
N     0.304975    2.033930    0.310374
C     0.684146    4.589968    0.703935
H     0.675810    5.117227    -0.258982
H     1.651873    4.755327    1.192648
H     -0.116628    4.993208    1.336074
C     3.165755    -0.528461    0.474286
N     2.032043    -0.331780    0.302804
C     4.579266    -0.773229    0.687026
H     5.075740    0.148394    1.013566
H     5.040250    -1.118869    -0.247518
H     4.711224    -1.548112    1.452958
C     -0.432064    -3.172414    -0.483093
N     -0.279067    -2.032419    -0.309183
C     -0.623841    -4.593855    -0.699298
H     0.342550    -5.111326    -0.674419
H     -1.098032    -4.760305    -1.675145
H     -1.274942    -5.004125    0.083330
C     -3.162501    0.489764    -0.473113
N     -2.024765    0.321493    -0.301013
C     -4.582112    0.699944    -0.687383
H     -5.159691    0.015796    -0.053037
H     -4.831273    0.503066    -1.738111
H     -4.849700    1.734759    -0.442555
N     -0.349891    -0.217560    2.124786
H     -1.207223    0.269114    2.401503
H     -0.452086    -1.206229    2.371363
H     0.425874    0.168218    2.670329
N     0.280642    0.308046    -2.125092
H     -0.138633    1.193011    -2.423587
H     1.277833    0.335316    -2.356707
H     -0.151243    -0.447797    -2.664064
