15

Co     -0.000001    -0.000001    -0.000000
C     -0.000000    1.992414    0.000000
O     0.000000    3.112868    0.000000
C     1.987546    0.000000    -0.000000
O     3.108052    0.000000    0.000000
C     -0.000000    -1.992381    -0.000000
O     0.000000    -3.112901    0.000000
C     -1.987490    -0.000000    -0.000000
O     -3.108107    0.000000    -0.000000
O     -0.000001    -0.000000    1.949355
H     0.794955    0.029039    2.532400
H     -0.794958    -0.029041    2.532398
O     0.000001    0.000001    -1.949355
H     -0.794955    0.029041    -2.532400
H     0.794958    -0.029039    -2.532398
