17

Co     -0.015707    -0.032685    -0.000131
C     -0.307741    2.049586    -0.348404
N     -0.466617    3.193936    -0.538933
C     2.071603    0.307327    0.292673
N     3.214234    0.507489    0.453656
C     0.279483    -2.114651    0.341587
N     0.442196    -3.260010    0.525329
C     -2.096102    -0.366806    -0.273180
N     -3.244665    -0.536197    -0.427478
N     -0.303883    0.338065    2.102257
H     -1.266328    0.641060    2.230925
H     -0.132486    -0.538244    2.590299
H     0.353031    1.057059    2.394291
N     0.329654    -0.279504    -2.108702
H     -0.475678    0.087115    -2.609977
H     1.177848    0.227680    -2.349496
H     0.441823    -1.277246    -2.274697
