25

Co     -0.028865    -0.090108    0.012248
O     0.337893    1.790305    -0.202427
H     -0.430125    2.369639    -0.000049
H     0.662975    2.046309    -1.093332
O     1.851631    -0.321901    -0.342851
H     2.461759    0.061545    0.325102
H     2.117838    -1.259209    -0.474410
O     -0.179170    -2.012887    0.254679
H     -0.760027    -2.538775    -0.334877
H     -0.282306    -2.356414    1.167426
O     -1.904828    0.335811    0.273065
H     -2.553096    0.113685    -0.428035
H     -2.322507    0.167364    1.143702
N     0.269757    0.145997    1.899444
C     0.502394    0.386688    3.013996
C     0.787671    0.677681    4.403883
H     0.633024    1.748713    4.594952
H     0.121568    0.093649    5.054024
H     1.830883    0.417278    4.630568
N     -0.349402    -0.322359    -1.869441
C     -0.446029    -0.405248    -3.026063
C     -0.572955    -0.499851    -4.465427
H     0.405910    -0.319726    -4.931654
H     -0.925304    -1.502168    -4.744218
H     -1.290475    0.249646    -4.827797
