13

Co     0.001126    0.000056    -0.000357
I     -0.033181    2.918880    -0.268015
I     2.917196    -0.046777    -0.251916
I     0.026569    -2.918195    0.277963
I     -2.916579    0.055807    0.244967
N     0.130893    0.145786    2.086631
H     -0.535247    -0.489596    2.522484
H     -0.075052    1.103926    2.368990
H     1.076356    -0.093683    2.384111
N     -0.129734    -0.147411    -2.087351
H     0.531969    0.491407    -2.525011
H     -1.077076    0.084544    -2.385059
H     0.082761    -1.104744    -2.367435
