29

Co     0.005762    -0.004443    0.004033
P     -0.381798    2.646397    0.505577
H     -1.108699    2.942072    1.675589
H     0.777715    3.427921    0.680700
H     -1.081714    3.368063    -0.480845
P     2.681061    0.449724    -0.428302
H     2.984802    1.676432    -1.050281
H     3.503599    0.460651    0.715160
H     3.319508    -0.482411    -1.269622
P     0.322151    -2.664133    -0.441442
H     1.646155    -3.145489    -0.477348
H     -0.265062    -3.509224    0.520715
H     -0.207990    -3.161084    -1.647922
P     -2.696580    -0.382581    0.404542
H     -3.121624    -1.722467    0.501181
H     -3.215815    0.186115    1.583766
H     -3.537306    0.138580    -0.598387
C     0.486435    -0.519266    3.134677
N     0.299170    -0.331822    2.001300
C     0.722189    -0.751686    4.547183
H     1.801563    -0.765676    4.746390
H     0.292906    -1.716733    4.844823
H     0.259902    0.047002    5.140687
C     -0.439614    0.491295    -3.134266
N     -0.271850    0.316156    -1.995891
C     -0.651941    0.708521    -4.552873
H     -1.727798    0.719025    -4.770306
H     -0.178947    -0.096045    -5.129846
H     -0.218498    1.670709    -4.853681
