13

Co     0.036759    -0.078260    -0.000040
I     0.050093    2.648991    0.018409
I     2.751380    -0.098556    0.020281
I     0.044344    -2.789550    -0.005906
I     -2.686261    -0.103023    -0.034141
P     0.000073    0.032688    2.263181
H     -1.070605    0.725208    2.864759
H     1.085937    0.653958    2.913675
H     -0.057083    -1.172393    2.997912
P     -0.023802    0.019899    -2.263233
H     -0.927757    0.927900    -2.849170
H     -0.359244    -1.149977    -2.977849
H     1.156164    0.383114    -2.947877
