37

Co     0.077256    -0.050558    -0.030018
O     -0.104373    1.935366    -0.372851
H     -1.014056    2.289204    -0.329738
C     0.791179    2.995154    -0.903535
H     1.774618    2.544384    -1.014640
H     0.396454    3.345786    -1.860468
H     0.814408    3.812307    -0.177789
O     2.100011    0.206437    0.247216
H     2.327135    0.678955    1.069644
C     3.352817    -0.300500    -0.361059
H     3.079786    -0.781538    -1.297307
H     4.013689    0.550021    -0.545016
H     3.823699    -1.006110    0.328439
O     0.259571    -2.036796    0.313057
H     1.169848    -2.389474    0.273314
C     -0.636357    -3.097596    0.840718
H     -1.619929    -2.647177    0.952145
H     -0.659121    -3.913161    0.113155
H     -0.242457    -3.450383    1.797189
O     -1.945257    -0.308210    -0.306868
H     -2.172162    -0.778613    -1.130568
C     -3.198790    0.193568    0.304472
H     -2.925791    0.673349    1.241352
H     -3.672663    0.899430    -0.382710
H     -3.856856    -0.659356    0.487303
O     -0.234160    0.271674    1.971115
H     -0.187341    -0.545145    2.503629
C     -0.423485    1.415773    2.893127
H     -0.430765    2.321358    2.291273
H     -1.375565    1.284188    3.415709
H     0.400967    1.425239    3.611410
O     0.387773    -0.373210    -2.030887
H     0.339176    0.443257    -2.563812
C     0.579581    -1.517291    -2.952613
H     0.590389    -2.422509    -2.350284
H     -0.245748    -1.529565    -3.669842
H     1.530608    -1.382865    -3.476385
