19

Co     -0.010968    0.003875    0.013423
S     -0.371748    2.287243    0.338743
C     1.143144    2.850116    0.678133
H     1.251499    3.919923    0.885816
C     2.314020    1.999345    0.712718
H     3.291810    2.441713    0.930808
S     2.256414    0.372300    0.436406
S     0.354887    -2.278292    -0.301381
C     0.197408    -2.883129    1.227445
H     0.336533    -3.960960    1.362324
C     -0.112943    -2.059604    2.377141
H     -0.218347    -2.530352    3.360297
S     -0.322338    -0.423808    2.286946
S     -2.275727    -0.356228    -0.422082
C     -2.371416    -0.112050    -2.052816
H     -3.355101    -0.213190    -2.523396
C     -1.226181    0.225347    -2.871904
H     -1.360203    0.359115    -3.950519
S     0.295967    0.420073    -2.261125
