13

Co     0.000004    -0.000070    0.000006
N     -0.000126    1.965543    -0.000073
N     -0.000220    3.073505    -0.000131
N     1.965619    0.000022    -0.000210
N     3.073581    0.000078    -0.000365
N     0.000129    -1.965683    0.000083
N     0.000223    -3.073645    0.000138
N     -1.965607    -0.000165    0.000218
N     -3.073569    -0.000224    0.000368
N     0.000183    -0.000005    1.965620
N     0.000297    0.000037    3.073582
N     -0.000184    -0.000139    -1.965605
N     -0.000309    -0.000185    -3.073567
