30

Co     -0.166602    -0.187562    0.055691
N     -0.533423    1.983883    0.292318
H     -0.762444    2.116895    1.280535
H     -1.327682    2.341084    -0.242169
H     0.237061    2.625997    0.098728
N     2.006344    0.078850    0.323565
H     2.286419    1.045284    0.498877
H     2.603242    -0.259235    -0.433599
H     2.275027    -0.434203    1.166297
N     0.289296    -2.320463    -0.364817
H     0.633616    -2.758290    0.492217
H     1.009117    -2.459264    -1.076358
H     -0.510386    -2.885793    -0.655161
N     -2.331863    -0.386911    -0.396176
H     -2.860097    -0.037922    0.406492
H     -2.652056    -1.347863    -0.530497
H     -2.653041    0.138260    -1.211903
O     -0.435361    -0.464797    1.769423
H     -0.766637    -0.925832    2.561641
C     0.489229    0.557623    -4.846896
C     1.105654    1.385987    -3.907706
C     0.897783    1.139751    -2.555415
N     0.122777    0.129857    -2.099832
C     -0.470605    -0.665127    -3.019422
C     -0.314708    -0.488127    -4.389022
H     0.631250    0.723176    -5.910455
H     1.739103    2.212434    -4.212471
H     1.368486    1.771116    -1.809757
H     -1.093445    -1.469427    -2.642159
H     -0.816000    -1.159159    -5.078665
