55

Co     -0.014120    -0.006078    0.016103
N     -2.074885    0.005119    -0.159774
N     0.001828    -2.067329    -0.146313
N     -0.030894    2.054406    0.156668
N     2.046030    -0.017659    0.167861
C     -2.889819    1.089365    -0.191107
C     -4.269040    0.676878    -0.339473
C     -4.264386    -0.686484    -0.395007
C     -2.881806    -1.103521    -0.287016
H     -5.120344    1.343047    -0.392693
H     -5.111335    -1.351843    -0.502195
C     -2.422332    -2.418204    -0.328768
C     -2.442362    2.429560    -0.078865
C     -0.664764    -4.256972    -0.379940
C     0.698128    -4.262499    -0.315004
C     1.112153    -2.883842    -0.167059
C     -1.080226    -2.873588    -0.277238
H     -1.330003    -5.103729    -0.489254
H     1.364042    -5.114402    -0.361601
C     2.424226    -2.432359    -0.049479
C     1.046135    2.856089    0.349022
C     0.633548    4.242266    0.409013
C     -0.721290    4.255586    0.244772
C     -1.134167    2.877589    0.090101
H     1.295095    5.086389    0.555012
H     -1.382327    5.112472    0.232015
C     4.244673    -0.686312    0.289892
C     4.231493    0.669500    0.445867
C     2.847052    1.085270    0.366620
C     2.867386    -1.096407    0.120693
H     5.100612    -1.348667    0.291016
H     5.074806    1.330774    0.597766
C     2.383464    2.396234    0.454482
H     -3.213522    3.194154    -0.118886
H     -3.180702    -3.189560    -0.432744
H     3.201158    -3.191517    -0.080093
H     3.137150    3.163257    0.611084
O     -0.070626    -0.055298    2.471158
C     -0.882555    0.701587    3.288346
C     -0.673690    0.369349    4.585681
C     0.329328    -0.661554    4.589522
C     0.660741    -0.884257    3.294281
H     -1.524362    1.405175    2.784131
H     -1.168884    0.800398    5.444379
H     1.346430    -1.549090    2.795332
H     0.743016    -1.165452    5.451690
O     0.075731    0.075522    -2.466875
C     0.947016    0.884615    -3.161684
C     0.779912    0.711660    -4.495897
C     -0.261346    -0.267224    -4.653830
C     -0.653513    -0.620371    -3.404974
H     1.593923    1.497229    -2.554552
H     1.326604    1.215262    -5.280662
H     -1.388585    -1.303550    -3.012576
H     -0.659750    -0.651717    -5.582180
