43

Co     0.054086    -0.031477    0.005405
N     0.020621    2.170480    0.277667
H     -0.195760    2.291331    1.272256
H     -0.817714    2.499772    -0.208370
C     1.152072    3.095468    -0.064354
H     2.017720    2.881112    0.564199
H     1.422355    2.997910    -1.118585
H     0.854221    4.134458    0.113162
N     2.240160    0.042246    0.426097
H     2.359176    0.538582    1.313928
H     2.639986    0.682592    -0.266545
C     3.097999    -1.189842    0.465602
H     2.765544    -1.850552    1.269935
H     3.049372    -1.707536    -0.494026
H     4.141352    -0.920631    0.660735
N     0.113891    -2.250961    -0.370875
H     0.810122    -2.626196    0.278763
H     0.550742    -2.350784    -1.291112
C     -1.091859    -3.141137    -0.332883
H     -1.580734    -3.071450    0.641407
H     -1.788582    -2.856434    -1.122658
H     -0.799658    -4.184416    -0.493740
N     -2.144463    -0.074495    -0.334826
H     -2.543047    -0.698819    0.371232
H     -2.266895    -0.577770    -1.216115
C     -2.988503    1.164099    -0.382636
H     -2.917599    1.698690    0.566211
H     -2.665121    1.802057    -1.208699
H     -4.038617    0.901877    -0.550629
N     -0.256400    -0.621461    2.142792
H     0.571672    -1.142905    2.444259
H     -1.012988    -1.310543    2.167189
C     -0.543497    0.433308    3.169752
H     0.299651    1.124838    3.235310
H     -1.458970    0.968229    2.908357
H     -0.682482    -0.024976    4.155263
N     0.381720    0.284742    -2.191543
H     1.328856    -0.055708    -2.384541
H     0.447617    1.298963    -2.312729
C     -0.525942    -0.246911    -3.263100
H     -0.621234    -1.331651    -3.178420
H     -1.506581    0.226086    -3.187542
H     -0.114444    -0.016910    -4.251826
