27

Co     -0.071715    -0.082669    -0.005654
P     -0.418484    2.231627    0.319285
H     -1.751547    2.685321    0.317846
H     0.076141    2.773602    1.521271
H     0.182498    3.049900    -0.653969
P     2.248637    0.229421    0.313464
H     2.708654    1.559970    0.342694
H     2.807522    -0.308714    1.487928
H     3.047144    -0.338991    -0.695394
P     0.309057    -2.389815    -0.351902
H     1.523799    -2.915643    0.129466
H     -0.635522    -3.266056    0.215622
H     0.321610    -2.779590    -1.702917
P     -2.368311    -0.396357    -0.473114
H     -2.701879    -1.574103    -1.168110
H     -3.248488    -0.436597    0.625436
H     -2.938341    0.601440    -1.284144
P     -0.450049    -0.454304    2.300698
H     0.645855    -0.265643    3.163767
H     -1.432592    0.359619    2.896532
H     -0.889606    -1.741991    2.663745
C     0.200990    0.236496    -1.881079
N     0.364094    0.427021    -3.012944
C     0.569321    0.662638    -4.423028
H     -0.083017    -0.009445    -4.987507
H     1.617783    0.462434    -4.661011
H     0.322789    1.705052    -4.643124
