25

Co     0.003325    0.082184    -0.011152
O     -0.394746    1.959206    -0.384735
H     0.041711    2.441900    -1.118056
H     -0.497987    2.589030    0.358793
O     1.920589    0.275392    0.327721
H     2.525484    0.418388    -0.430505
H     2.247782    0.831527    1.065972
O     0.201697    -1.803053    0.391851
H     1.113233    -2.067958    0.646992
H     -0.113440    -2.446490    -0.279407
O     -1.862585    -0.312154    -0.379609
H     -2.390543    -0.677158    0.363318
H     -2.366611    0.452710    -0.736251
C     -0.337136    0.332610    1.926621
N     -0.516446    0.382768    3.066964
C     -0.728831    0.426392    4.494935
H     -0.172087    -0.400612    4.946694
H     -1.800635    0.319121    4.687910
H     -0.365273    1.387571    4.870280
C     0.330922    -0.242536    -1.936465
N     0.471387    -0.489595    -3.056189
C     0.642827    -0.807527    -4.454776
H     0.014530    -1.673364    -4.686185
H     1.698108    -1.038447    -4.628634
H     0.334725    0.060095    -5.046087
