67

Co     -0.020994    0.013359    -0.000047
C     -0.090484    4.926859    0.134044
C     1.115106    4.226140    0.083608
C     1.098325    2.836321    0.050074
N     -0.048345    2.108710    0.061127
C     -1.215039    2.799944    0.114774
C     -1.273553    4.189298    0.153523
H     -0.106644    6.012369    0.159596
H     2.069431    4.742610    0.071955
H     2.023510    2.285249    0.024696
H     -2.126152    2.227275    0.118417
H     -2.243183    4.675617    0.195351
C     4.898267    -0.084746    -0.024536
C     4.179426    -0.362141    1.138259
C     2.789794    -0.309860    1.112692
N     2.080704    0.003020    -0.001813
C     2.790033    0.274546    -1.127560
C     4.179480    0.240142    -1.175570
H     5.984076    -0.118439    -0.033252
H     4.680279    -0.621965    2.065458
H     2.226824    -0.548266    2.000082
H     2.226532    0.543594    -2.006378
H     4.681189    0.468043    -2.110598
C     -0.051018    -4.906758    -0.115674
C     -1.238213    -4.180221    -0.029658
C     -1.190496    -2.791118    -0.002590
N     -0.030159    -2.088381    -0.055598
C     1.118888    -2.804652    -0.149930
C     1.146471    -4.194589    -0.178526
H     -0.059361    -5.992339    -0.135346
H     -2.202784    -4.674387    0.018571
H     -2.102564    -2.224653    0.077955
H     2.037376    -2.247363    -0.227028
H     2.103176    -4.700811    -0.253867
C     -4.908822    -0.014025    0.010719
C     -4.193420    -0.094142    -1.183990
C     -2.803266    -0.087025    -1.150527
N     -2.094822    0.004544    0.002814
C     -2.798536    0.090676    1.160871
C     -4.187802    0.079270    1.201780
H     -5.994612    -0.021325    0.014377
H     -4.697047    -0.163291    -2.142703
H     -2.241460    -0.164110    -2.066357
H     -2.231285    0.185951    2.071990
H     -4.687182    0.148804    2.162589
C     0.154257    -0.112546    4.898113
C     0.352409    1.081173    4.205199
C     0.282079    1.086086    2.816026
N     0.020070    -0.026342    2.085479
C     -0.174136    -1.183367    2.769142
C     -0.114866    -1.262614    4.155468
H     0.209945    -0.146755    5.982033
H     0.563869    2.009864    4.725358
H     0.449519    2.000758    2.272456
H     -0.387587    -2.065637    2.189104
H     -0.279795    -2.221362    4.636221
C     0.060374    0.138099    -4.902158
C     0.188690    -1.067587    -4.213762
C     0.155115    -1.068244    -2.823905
N     -0.004440    0.058759    -2.086586
C     -0.134794    1.227656    -2.765626
C     -0.104855    1.303967    -4.153651
H     0.088033    0.169040    -5.987136
H     0.315024    -2.009386    -4.737758
H     0.255026    -1.995086    -2.285902
H     -0.271303    2.121982    -2.180981
H     -0.212996    2.272707    -4.631200
