11

Co     0.004066    -0.427822    -0.000720
Cl     -0.367065    2.119410    -0.092638
Cl     2.359365    0.048802    0.410989
Cl     0.337511    -2.667674    0.282484
Cl     -2.340946    -0.700242    -0.499322
O     -0.180275    0.002491    2.082609
H     0.792553    0.049224    2.213462
H     -0.441474    0.940064    1.958597
O     0.185555    -0.099897    -2.078538
H     -0.786637    -0.093016    -2.222022
H     0.437349    0.845947    -2.054902
