50

Co     -0.008816    -0.057675    0.014053
C     0.347562    -0.060360    -2.324576
O     0.534872    -0.066761    -3.437753
O     -0.313353    -0.025446    2.220464
H     0.360351    -0.174916    2.904781
H     -1.157203    0.095357    2.687264
C     0.018696    5.032090    0.020509
C     0.589036    4.297195    1.060631
C     0.532837    2.891679    1.018891
N     -0.037987    2.204984    0.007092
C     -0.591974    2.924361    -0.991620
C     -0.588223    4.331846    -1.023055
H     0.043813    6.117914    0.024200
H     1.071587    4.787290    1.900248
H     0.944476    2.301318    1.829334
H     -1.059508    2.366578    -1.797615
H     -1.049982    4.849054    -1.858573
C     5.030542    0.077981    0.466731
C     4.281232    -0.926071    1.080923
C     2.881486    -0.921596    0.939674
N     2.211798    0.015189    0.235444
C     2.946473    0.984826    -0.350943
C     4.348238    1.052882    -0.261361
H     6.112967    0.098954    0.552255
H     4.756180    -1.709509    1.663256
H     2.285999    -1.700392    1.404644
H     2.402070    1.727241    -0.923359
H     4.876674    1.857234    -0.763778
C     -0.002079    -5.059589    0.006671
C     -0.820706    -4.332108    0.872515
C     -0.773541    -2.931128    0.838942
N     0.025246    -2.240855    -0.004642
C     0.821232    -2.954088    -0.832066
C     0.838816    -4.355789    -0.857288
H     -0.016783    -6.145419    0.007017
H     -1.485269    -4.830121    1.571345
H     -1.381506    -2.341181    1.514516
H     1.466474    -2.389987    -1.498091
H     1.499730    -4.870181    -1.547419
C     -5.007969    0.028157    -0.563370
C     -4.359720    0.988105    0.215298
C     -2.962889    0.928050    0.349496
N     -2.202607    -0.021338    -0.238538
C     -2.839883    -0.945318    -0.988901
C     -4.232094    -0.956709    -1.175554
H     -6.086261    0.047696    -0.690063
H     -4.912973    1.775304    0.718286
H     -2.437732    1.665018    0.947137
H     -2.221212    -1.701602    -1.459322
H     -4.681511    -1.728167    -1.792603
