55

Co     0.005401    0.010990    -0.000296
N     -1.957665    0.037979    -0.325715
N     0.032224    -1.952157    -0.325646
N     -0.022880    1.974754    0.334570
N     1.969220    -0.017599    0.334577
C     -2.757757    1.152007    -0.458871
C     -4.117437    0.751682    -0.710073
C     -4.139561    -0.609072    -0.702711
C     -2.787552    -1.050692    -0.481839
H     -4.941462    1.438494    -0.853273
H     -4.983378    -1.270573    -0.849578
C     -2.381248    -2.375435    -0.515735
C     -2.347212    2.465218    -0.289899
C     -0.615070    -4.133863    -0.703313
C     0.745686    -4.111893    -0.710626
C     1.146156    -2.752332    -0.459013
C     -1.056540    -2.781871    -0.482054
H     -1.276659    -4.977572    -0.850417
H     1.432408    -4.935960    -0.854025
C     2.459394    -2.342028    -0.289720
C     1.006942    2.744074    0.830089
C     0.585519    4.116313    0.938271
C     -0.694585    4.176819    0.479967
C     -1.076407    2.836120    0.121380
H     1.209186    4.921566    1.304052
H     -1.342648    5.040090    0.402209
C     4.171077    -0.689790    0.480755
C     4.110721    0.590355    0.938952
C     2.738608    1.012076    0.830311
C     2.830404    -1.071328    0.121772
H     5.034224    -1.338056    0.403320
H     4.916005    1.213867    1.304933
C     2.289875    2.295127    1.102233
H     -3.086530    3.248006    -0.419954
H     -3.142356    -3.136456    -0.649070
H     3.242091    -3.081447    -0.419731
H     3.006300    3.011467    1.489600
O     -0.308265    -0.302774    1.935255
C     -1.271991    0.322441    2.724165
C     -1.246220    -0.222003    3.959304
C     -0.228253    -1.241054    3.959175
C     0.315958    -1.267293    2.723945
H     -1.841199    1.098117    2.243853
H     -1.877285    0.066185    4.788141
H     1.091111    -1.837129    2.243534
H     0.059377    -1.872550    4.787878
O     0.332433    0.338328    -1.924890
C     1.244133    1.248610    -2.457852
C     1.184613    1.187339    -3.805131
C     0.195277    0.198161    -4.148168
C     -0.299897    -0.295140    -2.993146
H     1.811731    1.816980    -1.742677
H     1.776733    1.778223    -4.489617
H     -1.037715    -1.031820    -2.730303
H     -0.104942    -0.103186    -5.141812
