25

Co     -0.000572    0.005214    0.002852
P     0.382115    2.331202    0.477162
H     -0.055086    2.767089    1.743555
H     1.708734    2.805044    0.439817
H     -0.278091    3.219327    -0.394424
P     2.365979    -0.340619    -0.263877
H     3.141874    -0.035163    0.871758
H     2.810757    -1.636782    -0.591975
H     2.970832    0.443997    -1.265100
P     -0.382375    -2.320370    -0.473464
H     0.258138    -3.207748    0.413395
H     -1.710846    -2.790246    -0.461353
H     0.078646    -2.760997    -1.729741
P     -2.366652    0.350424    0.272368
H     -3.139093    0.101724    -0.879390
H     -2.981396    -0.475031    1.233987
H     -2.805236    1.632831    0.657826
N     0.098703    -0.472058    1.990713
H     -0.580452    -1.172568    2.306579
H     1.009839    -0.841542    2.281630
H     -0.055419    0.334023    2.604885
N     -0.099690    0.482818    -1.984540
H     -1.010577    0.853159    -2.275004
H     0.580228    1.182660    -2.300200
H     0.053852    -0.323090    -2.599104
