23

Co     -0.020791    0.016613    0.025006
N     -0.210250    2.028043    0.275512
H     -1.188728    2.323008    0.378967
H     0.267191    2.390575    1.110356
H     0.149631    2.594958    -0.503908
N     1.987645    0.221586    -0.235743
H     2.305282    1.198195    -0.198916
H     2.551729    -0.273284    0.466992
H     2.330028    -0.125640    -1.141584
N     0.162229    -1.993920    -0.258065
H     1.140346    -2.304391    -0.306883
H     -0.263966    -2.566260    0.482077
H     -0.261415    -2.339083    -1.129858
N     -2.039557    -0.203650    0.224192
H     -2.342523    -1.180697    0.129202
H     -2.413263    0.098849    1.132365
H     -2.595745    0.307875    -0.473892
N     0.247520    -0.186596    2.002041
H     -0.529704    0.173592    2.569929
H     0.364530    -1.161509    2.303777
H     1.078844    0.300655    2.360593
C     -0.282864    0.267697    -1.925840
O     -0.434190    0.417048    -3.029321
