37

Co     -0.114526    0.044697    0.013780
N     0.674386    1.784690    -0.133100
C     1.109291    2.854217    -0.200676
C     1.649745    4.201463    -0.282557
H     2.075228    4.373708    -1.277849
H     0.851469    4.930642    -0.101407
H     2.434590    4.333885    0.471056
N     1.579406    -0.758365    -0.384573
C     2.608467    -1.214025    -0.651018
C     3.902297    -1.786191    -0.986477
H     3.868283    -2.876280    -0.875808
H     4.159346    -1.539027    -2.023280
H     4.672110    -1.379925    -0.319937
N     -0.911068    -1.691636    0.165745
C     -1.382531    -2.744378    0.249401
C     -1.975840    -4.067451    0.355383
H     -2.688378    -4.089585    1.188131
H     -2.500885    -4.314392    -0.574658
H     -1.191894    -4.812639    0.533567
N     -1.809699    0.844462    0.412505
C     -2.843283    1.287568    0.681863
C     -4.144146    1.840893    1.019675
H     -4.919786    1.080908    0.868993
H     -4.151444    2.159158    2.068735
H     -4.358253    2.704817    0.380189
N     0.307295    0.008032    1.880587
C     0.550289    -0.019601    3.010742
C     0.851772    -0.055759    4.431997
H     0.052876    0.442823    4.993335
H     0.931222    -1.096475    4.767166
H     1.800726    0.457899    4.624576
N     -0.545763    0.081565    -1.850546
C     -0.828214    0.106108    -2.971600
C     -1.185425    0.139737    -4.380212
H     -0.831436    -0.771694    -4.875870
H     -2.274745    0.205025    -4.484865
H     -0.724714    1.012163    -4.858096
