17

Co     -0.002850    0.003218    0.080428
C     0.316034    1.866891    0.408525
N     0.510938    2.998098    0.629286
C     1.876284    -0.280088    -0.187009
N     3.022880    -0.457011    -0.329705
C     -0.321670    -1.860504    -0.247297
N     -0.515978    -2.991927    -0.467432
C     -1.881976    0.286922    0.347513
N     -3.028541    0.464455    0.489710
P     0.342707    -0.335068    2.248466
H     1.468021    0.289879    2.818428
H     -0.654147    0.082306    3.154665
H     0.542751    -1.657236    2.697835
P     -0.348380    0.342036    -2.087495
H     0.649123    -0.073776    -2.993689
H     -1.473019    -0.283724    -2.657894
H     -0.549721    1.664313    -2.535891
