29

Co     -0.045844    -0.121119    0.017597
N     0.120127    1.837963    -0.384464
H     0.030912    2.417073    0.456861
H     -0.583409    2.162845    -1.055930
H     1.023077    2.085112    -0.801918
N     1.936475    -0.339920    -0.204196
H     2.468821    0.380589    0.294791
H     2.222117    -0.304041    -1.188391
H     2.288026    -1.231559    0.159485
N     -0.219555    -2.091976    0.354463
H     0.235562    -2.390336    1.223814
H     0.183240    -2.649446    -0.406018
H     -1.194310    -2.399387    0.428997
N     -2.020960    0.100153    0.304874
H     -2.341027    -0.343827    1.172101
H     -2.582875    -0.288226    -0.460143
H     -2.296648    1.083382    0.390057
N     0.237136    0.193389    1.909625
C     0.403151    0.383752    3.044501
C     0.610767    0.617390    4.462449
H     0.365527    1.658405    4.710191
H     -0.032983    -0.051687    5.048480
H     1.659953    0.424188    4.721308
N     -0.333796    -0.438752    -1.874702
C     -0.509989    -0.632642    -3.007476
C     -0.733492    -0.875527    -4.421376
H     -1.717530    -1.339903    -4.567940
H     -0.699039    0.073513    -4.971657
H     0.042431    -1.545865    -4.813828
