27

Co     0.086394    -0.091549    -0.016552
N     -0.149535    2.069832    0.287051
H     -1.134275    2.336498    0.393079
H     0.337183    2.457456    1.103548
H     0.190530    2.593220    -0.527354
N     2.253428    0.165562    -0.337278
H     2.567267    1.129369    -0.178534
H     2.880648    -0.419856    0.226396
H     2.480751    -0.036659    -1.316568
N     0.342350    -2.254448    -0.297180
H     1.304845    -2.579471    -0.153256
H     -0.250908    -2.873591    0.267222
H     0.120635    -2.462697    -1.277817
N     -2.088533    -0.367355    0.234020
H     -2.367209    -1.354249    0.243840
H     -2.515895    0.042988    1.071611
H     -2.581606    0.042015    -0.567239
N     0.401055    -0.368160    2.112639
H     -0.347638    0.040343    2.683660
H     0.451863    -1.353413    2.394170
H     1.272543    0.057923    2.448228
C     -0.398758    0.397811    -3.199524
N     -0.223726    0.221073    -2.058571
C     -0.615164    0.609929    -4.614817
H     0.344520    0.590031    -5.148835
H     -1.095232    1.585684    -4.776295
H     -1.268710    -0.177466    -5.015498
