13

Co     0.020182    0.019622    0.050658
N     0.315051    2.079456    0.379075
P     0.511467    3.537613    0.600969
N     2.058352    -0.306025    0.361704
P     3.518128    -0.525310    0.554289
N     -0.274571    -2.040161    -0.276366
P     -0.471244    -3.498741    -0.495248
N     -2.017915    0.345935    -0.260728
P     -3.477463    0.565571    -0.454660
N     -0.287376    -0.275864    2.093535
P     -0.517061    -0.473454    3.551053
N     0.327833    0.315545    -1.992046
P     0.556469    0.514384    -3.449557
