21

Co     0.001106    0.000920    0.002337
C     -0.021064    2.110802    0.002445
N     -0.022966    3.282111    0.002351
C     2.111034    -0.021253    -0.000618
N     3.282336    -0.023148    -0.003768
C     0.019503    -2.109485    0.002936
N     0.019768    -3.280789    0.003245
C     -2.109365    0.019336    0.005832
N     -3.280661    0.019604    0.009085
C     0.002544    0.000676    3.364512
N     0.002448    0.001047    2.211152
C     0.003020    -0.000341    4.821620
H     -1.025013    -0.036950    5.194879
H     0.486416    0.907532    5.195197
H     0.548325    -0.873499    5.192834
C     -0.001599    0.000318    -3.359700
N     -0.000539    0.000677    -2.206340
C     -0.003398    0.000332    -4.816798
H     1.024286    0.036676    -5.191040
H     -0.549035    0.873238    -5.188114
H     -0.487146    -0.907802    -5.189279
