15

Co     0.119792    0.243785    -0.005915
N     -0.060153    3.433949    -0.351951
C     0.002771    2.270694    -0.225092
N     3.270162    -0.141963    0.677205
C     2.139950    -0.001399    0.406154
N     0.099388    -3.142727    -0.098227
C     0.103414    -1.973355    -0.037347
N     -3.114196    -0.206401    -0.547082
C     -1.974147    -0.053660    -0.328544
O     -0.319995    -0.044847    2.088610
H     -1.238634    -0.363903    2.009519
H     0.223977    -0.831654    2.273636
O     0.325546    -0.111762    -2.152251
H     0.616354    -1.042966    -2.113900
H     -0.628384    -0.162050    -2.353416
