22

Co     -0.032082    -0.035697    0.217911
P     -0.442475    2.210618    -0.262552
H     -0.372512    3.184711    0.755988
H     0.401167    2.758644    -1.243123
H     -1.710038    2.463055    -0.813365
P     2.207503    0.255429    -0.370958
H     3.184129    0.453349    0.627347
H     2.752898    -0.810265    -1.105830
H     2.457002    1.338183    -1.231498
P     0.328041    -2.337162    0.328703
H     1.363676    -2.807429    -0.496193
H     0.638427    -2.947565    1.561752
H     -0.752147    -3.117531    -0.116830
P     -2.322448    -0.408259    0.462491
H     -2.770804    -1.626765    -0.073710
H     -2.907113    -0.421418    1.746323
H     -3.142119    0.511159    -0.213941
P     0.304886    0.353021    2.473615
H     1.476988    1.041191    2.841068
H     -0.671911    1.125086    3.131316
H     0.373169    -0.768415    3.322210
Cl     -0.393577    -0.378930    -1.995133
