19

Co     0.000000    -0.000123    0.000022
C     0.000225    1.933133    -0.000118
N     0.000417    3.084058    -0.000247
H     0.000599    4.102548    -0.000423
C     1.933256    -0.000055    -0.000051
N     3.084180    0.000069    -0.000062
H     4.102670    0.000194    -0.000107
C     -0.000188    -1.933378    0.000120
N     -0.000331    -3.084303    0.000258
H     -0.000473    -4.102793    0.000357
C     -1.933255    -0.000154    0.000092
N     -3.084180    -0.000230    0.000153
H     -4.102670    -0.000320    0.000164
C     0.000062    -0.000272    1.933278
N     0.000091    -0.000442    3.084203
H     0.000112    -0.000595    4.102693
C     -0.000062    -0.000014    -1.933232
N     -0.000093    0.000099    -3.084157
H     -0.000113    0.000217    -4.102647
