17

Co     -0.004437    0.004723    -0.015785
Cl     0.336276    2.368924    -0.397393
Cl     2.353142    -0.407972    -0.376087
Cl     -0.344705    -2.360539    0.365372
Cl     -2.361036    0.416205    0.344470
C     0.343657    0.300474    2.050547
N     0.526386    0.468079    3.189786
C     0.738127    0.674319    4.571883
H     1.382137    -0.116001    4.969813
H     -0.220626    0.656370    5.099245
H     1.218630    1.644411    4.732083
C     -0.349229    -0.294579    -2.082322
N     -0.527624    -0.465125    -3.221814
C     -0.732020    -0.679855    -4.603768
H     -1.406828    -1.528798    -4.750618
H     0.225168    -0.892760    -5.089682
H     -1.174230    0.213176    -5.056144
