24

Co     -0.006279    0.006207    0.045798
N     -0.189260    2.008187    0.308877
H     -1.088561    2.297760    0.712663
H     0.520188    2.431313    0.920695
H     -0.126807    2.529621    -0.574183
N     1.991729    0.183969    -0.212308
H     2.332812    1.152038    -0.254676
H     2.583867    -0.274562    0.491377
H     2.271067    -0.239808    -1.106486
N     0.208003    -1.985927    -0.211893
H     1.073285    -2.384479    0.173111
H     -0.544368    -2.578260    0.160850
H     0.243918    -2.182417    -1.219976
N     -2.017343    -0.204677    0.165521
H     -2.372156    -1.041962    -0.313535
H     -2.393186    -0.277122    1.119184
H     -2.529802    0.575419    -0.264907
N     0.174771    -0.193114    2.012471
H     -0.460354    0.411120    2.548246
H     -0.011946    -1.149601    2.337764
H     1.114453    0.032647    2.360449
O     -0.150310    0.144220    -1.972591
H     -0.970116    -0.037814    -2.476779
H     0.348039    0.781924    -2.524158
