11

Co     0.002198    -0.173073    0.026079
Cl     -0.324911    2.126781    -0.364752
Cl     2.281171    0.200143    0.280151
Cl     0.334467    -2.404863    0.387486
Cl     -2.280010    -0.515517    -0.208146
O     -0.345813    0.154611    1.918825
H     -0.288504    1.133900    1.903155
H     -1.311840    -0.033593    1.872889
O     0.349778    -0.422922    -1.878477
H     0.264097    0.518883    -2.141081
H     1.319362    -0.564135    -1.796130
