21

Co     -0.000001    0.000056    -0.000003
C     -0.000000    1.934967    -0.000001
O     0.000000    3.056840    0.000001
C     1.934942    0.000068    0.000183
O     3.056862    0.000059    0.000177
C     -0.000001    -1.934991    -0.000001
O     0.000001    -3.056815    0.000001
C     -1.934939    0.000068    -0.000185
O     -3.056864    0.000060    -0.000176
C     0.000104    0.000215    1.954708
N     0.000342    0.000402    3.107916
C     0.000000    -0.000019    4.552442
H     0.611002    -0.843382    4.891938
H     -1.035939    -0.107995    4.891495
H     0.424619    0.950623    4.892822
C     -0.000105    0.000215    -1.954650
N     -0.000341    0.000402    -3.107974
C     -0.000000    -0.000019    -4.552445
H     -0.611002    -0.843383    -4.891936
H     1.035939    -0.107995    -4.891493
H     -0.424619    0.950623    -4.892819
