21

Co     0.000114    -0.000012    -0.000174
C     0.000117    1.938893    0.000282
N     0.000115    3.107023    0.000739
C     1.939011    -0.000012    -0.004236
N     3.107135    -0.000011    -0.008290
C     0.000117    -1.938915    -0.000625
N     0.000116    -3.107045    -0.001059
C     -1.938788    -0.000012    0.003731
N     -3.106911    -0.000012    0.007635
C     0.002261    -0.000281    3.040872
N     0.001932    -0.000226    1.890609
C     0.002830    -0.000355    4.496605
H     -1.025300    -0.036238    4.870098
H     0.486075    0.908168    4.869269
H     0.548267    -0.873016    4.869090
C     -0.002309    0.000286    -3.041231
N     -0.001839    0.000217    -1.890969
C     -0.003062    0.000379    -4.496964
H     1.025020    0.036266    -4.870589
H     -0.548546    0.873045    -4.869368
H     -0.486355    -0.908139    -4.869577
