9

Co     0.000002    0.000001    0.000001
Cl     -0.000254    2.318951    -0.000011
Cl     2.318952    0.000255    -0.000072
Cl     0.000257    -2.318950    0.000012
Cl     -2.318949    -0.000255    0.000068
C     0.000021    0.000002    1.860530
O     0.000029    0.000001    2.996978
C     -0.000022    -0.000002    -1.860529
O     -0.000036    -0.000003    -2.996976
