37

Co     0.000183    0.000124    0.000057
C     -0.013016    2.158719    -0.012359
N     -0.008717    3.316675    -0.008215
C     -0.001350    4.752339    -0.000513
H     0.839762    5.100523    -0.606432
H     0.109401    5.097118    1.030983
H     -0.944583    5.110197    -0.421533
C     2.158578    -0.012031    -0.013197
N     3.316545    -0.007626    -0.009143
C     4.752174    -0.001551    -0.000876
H     5.109706    -0.838054    -0.606964
H     5.097126    -0.105783    1.031401
H     5.100643    0.946337    -0.420155
C     0.012998    -2.158563    0.011904
N     0.008261    -3.316496    0.007376
C     -0.000204    -4.752177    0.000489
H     -0.839753    -5.096459    -0.608923
H     -0.108286    -5.105882    1.029404
H     0.944311    -5.105123    -0.422688
C     -2.158378    0.012098    0.013331
N     -3.316297    0.007518    0.008994
C     -4.751975    0.000356    -0.000093
H     -5.096010    -0.608927    -0.839928
H     -5.105708    1.029239    -0.108132
H     -5.105321    -0.422878    0.944268
C     -0.012495    -0.011916    2.158503
N     -0.008138    -0.007255    3.316456
C     -0.001033    0.000015    4.752126
H     0.608647    -0.837589    5.102247
H     -1.029385    -0.107087    5.107521
H     0.423740    0.946169    5.097610
C     0.012536    0.012881    -2.158348
N     0.008031    0.008398    -3.316308
C     0.000548    -0.000085    -4.751956
H     -0.609063    -0.839616    -5.096117
H     1.029354    -0.108022    -5.106063
H     -0.422833    0.944410    -5.104732
