19

Co     0.101176    0.000133    -0.031504
O     0.278746    1.911000    0.143579
N     1.521446    2.236393    0.243451
H     1.777625    3.239419    0.342769
N     2.399164    1.314801    0.234127
H     3.415712    1.521382    0.312872
O     2.018260    0.092432    0.105153
O     -0.037172    -1.916893    0.061141
N     -0.167543    -2.297367    1.283501
H     -0.248079    -3.313745    1.490227
N     -0.175696    -1.419504    2.204976
H     -0.275840    -1.675385    3.207998
O     -0.073492    -0.177056    1.879513
O     -1.809739    0.175742    -0.208536
N     -2.135332    0.276785    -1.451053
H     -3.138372    0.376880    -1.706895
N     -1.213941    0.267636    -2.328997
H     -1.420714    0.347220    -3.345433
O     0.008439    0.137551    -1.948451
