29

Co     -0.000001    0.000012    -0.000024
C     -0.000008    0.000085    1.904544
O     -0.000075    0.000131    3.028898
C     0.000006    0.000079    -1.904569
O     0.000069    0.000126    -3.028900
C     -0.000424    1.941052    -0.000247
N     -0.000517    3.094740    -0.000557
C     0.000064    4.537137    -0.000187
H     0.840770    4.881248    -0.609250
H     0.108005    4.879678    1.033087
H     -0.947488    4.882604    -0.423056
C     1.941051    0.000405    -0.000217
N     3.094735    0.000525    -0.000502
C     4.537132    0.000027    -0.000137
H     4.881276    -0.840637    -0.609241
H     4.879677    -0.107952    1.033130
H     4.882537    0.947651    -0.422899
C     0.000429    -1.941046    -0.000235
N     0.000525    -3.094734    -0.000531
C     -0.000066    -4.537127    -0.000193
H     -0.840819    -4.881194    -0.609222
H     -0.107991    -4.879680    1.033076
H     0.947526    -4.882570    -0.422994
C     -1.941050    -0.000222    0.000303
N     -3.094735    -0.000227    0.000427
C     -4.537127    0.000146    -0.000043
H     -4.880669    -0.609359    -0.840817
H     -4.881582    1.032412    -0.107682
H     -4.881247    -0.423311    0.948036
