25
03/24/2023 16:57, XYZ structure generated by mol3D Class, molSimplify
Co     0.001515    0.001470    -0.002244
N     -0.285303    1.983240    0.338890
H     -0.976620    2.168546    1.076185
H     0.552553    2.493112    0.643712
H     -0.626485    2.507012    -0.476077
N     2.003411    0.235577    -0.255200
H     2.304401    1.214371    -0.329356
H     2.576660    -0.159132    0.500641
H     2.358824    -0.206825    -1.111746
N     0.211028    -2.002799    -0.260255
H     1.184035    -2.329718    -0.224184
H     -0.281977    -2.557542    0.450403
H     -0.149114    -2.357550    -1.154539
N     -2.001098    -0.300736    0.174359
H     -2.357049    -1.045504    -0.437382
H     -2.304744    -0.574906    1.116294
H     -2.574887    0.520763    -0.053413
N     0.292549    -0.211489    1.998620
H     -0.533808    -0.020201    2.578213
H     0.592554    -1.152656    2.279884
H     1.014002    0.417466    2.372091
N     -0.216525    0.295544    -1.999605
H     -1.192164    0.428804    -2.290182
H     0.279640    1.125709    -2.346987
H     0.128402    -0.472623    -2.588138
