43

Co     -0.030550    -0.009595    -0.023589
N     0.058206    2.048521    -0.091447
H     -0.818799    2.383136    -0.497265
H     0.759733    2.276738    -0.801744
C     0.343142    2.935143    1.092216
H     -0.463611    2.865209    1.823755
H     1.294475    2.666675    1.558014
H     0.412272    3.976865    0.763834
N     2.022253    0.040623    0.096748
H     2.248367    0.802067    0.741798
H     2.385956    0.370171    -0.801186
C     2.873720    -1.132499    0.506042
H     2.545163    -1.514929    1.473754
H     2.826949    -1.917401    -0.250123
H     3.917162    -0.815320    0.597033
N     0.026576    -2.044126    -0.121374
H     0.435427    -2.375233    0.754613
H     0.743779    -2.252802    -0.820048
C     -1.149939    -2.929537    -0.424302
H     -1.904854    -2.844596    0.358453
H     -1.583560    -2.675179    -1.394726
H     -0.822647    -3.973161    -0.468287
N     -2.083112    -0.038055    -0.053814
H     -2.367124    -0.577053    0.768234
H     -2.387672    -0.626061    -0.833513
C     -2.930691    1.204104    -0.085759
H     -2.694259    1.846609    0.764508
H     -2.776513    1.740023    -1.025442
H     -3.989583    0.933495    -0.026943
N     -0.138137    0.025618    2.014172
H     -0.874367    0.702518    2.229375
H     0.706094    0.467971    2.385515
C     -0.399723    -1.193318    2.855175
H     -1.301327    -1.706903    2.515300
H     0.454494    -1.872157    2.817272
H     -0.545123    -0.897711    3.898924
N     -0.067192    0.014224    -2.083030
H     -0.688847    0.773958    -2.375927
H     -0.563755    -0.828942    -2.384502
C     1.171648    0.111104    -2.932868
H     1.685357    1.057849    -2.747222
H     1.835749    -0.730729    -2.726477
H     0.900476    0.081430    -3.992760
