33

Co     0.006175    -0.003624    0.032362
C     0.334743    2.096357    0.336322
N     0.519023    3.229335    0.497382
C     0.750464    4.634171    0.694720
H     1.405452    4.996693    -0.102253
H     1.224514    4.778478    1.669294
H     -0.210476    5.154994    0.660342
C     2.098891    -0.333213    -0.308578
N     3.229834    -0.509087    -0.490803
C     4.633026    -0.723726    -0.715875
H     4.764629    -1.176787    -1.702252
H     5.014556    -1.391379    0.061439
H     5.146437    0.240731    -0.671177
C     -0.321699    -2.101513    -0.275509
N     -0.500205    -3.234352    -0.442434
C     -0.724714    -4.638705    -0.649761
H     -1.710728    -4.773025    -1.102887
H     -0.679977    -5.147708    0.316813
H     0.052958    -5.022785    -1.315724
C     -2.090915    0.306654    0.374290
N     -3.225421    0.458774    0.556396
C     -4.633117    0.642116    0.781870
H     -4.785506    1.601718    1.283580
H     -4.996411    -0.175198    1.410848
H     -5.146900    0.633891    -0.183168
P     0.369701    -0.399249    2.751737
H     1.671531    -0.147399    3.226062
H     -0.435292    0.410847    3.576028
H     0.101034    -1.700536    3.218315
P     -0.390762    0.488235    -2.667003
H     0.771158    0.801153    -3.398543
H     -0.959964    -0.571212    -3.399683
H     -1.247337    1.570563    -2.947471
