13

Co     0.000819    0.000820    -0.000003
C     -0.024342    2.092458    0.000136
N     -0.027835    3.263698    0.000196
C     2.092361    -0.023640    0.000138
N     3.263612    -0.026704    0.000199
C     0.022739    -2.091348    -0.000135
N     0.025261    -3.262584    -0.000191
C     -2.091249    0.022036    -0.000135
N     -3.262496    0.024129    -0.000190
C     0.000301    0.000305    2.246045
O     -0.000246    -0.000241    3.379509
C     0.000705    0.000704    -2.246052
O     0.000369    0.000366    -3.379516
