25

Co     -0.018848    -0.030236    -0.044017
P     -0.370886    2.293954    0.249823
H     -0.363756    2.779257    1.571530
H     -1.585923    2.804534    -0.247245
H     0.569795    3.133942    -0.377386
P     2.280937    0.328982    0.394347
H     3.049063    0.876819    -0.650656
H     3.031806    -0.808968    0.748722
H     2.568332    1.203396    1.460591
P     0.419959    -2.329956    -0.403554
H     -0.624689    -3.098010    -0.952164
H     0.773740    -3.081029    0.734444
H     1.486714    -2.617108    -1.277427
P     -2.343107    -0.323821    -0.396277
H     -3.183150    0.302166    0.545173
H     -2.828398    -1.645533    -0.390972
H     -2.853638    0.174914    -1.610647
P     -0.378852    -0.468544    2.255696
H     -1.245824    -1.540942    2.542704
H     -0.936136    0.573328    3.021284
H     0.760206    -0.813317    3.009348
P     0.274532    0.322011    -2.368243
H     -0.221116    1.537820    -2.878363
H     -0.354267    -0.617605    -3.208238
H     1.596040    0.313222    -2.854039
