24

Co     0.011735    0.012262    0.109871
P     -0.311752    2.368233    -0.093332
H     -0.636801    3.125287    1.048844
H     0.800549    3.054348    -0.615659
H     -1.331943    2.718087    -0.997801
P     2.336205    0.348590    0.503818
H     2.712846    1.566609    1.101418
H     2.983723    -0.601436    1.316932
H     3.120213    0.328783    -0.667444
P     0.396242    -2.342471    -0.068515
H     1.632906    -2.664192    -0.658879
H     0.383623    -3.143953    1.088936
H     -0.514790    -3.000808    -0.915900
P     -2.318591    -0.375511    -0.228761
H     -2.879086    -1.486684    0.430211
H     -3.206134    0.662380    0.114652
H     -2.646492    -0.627361    -1.576027
P     -0.369352    0.008786    2.403911
H     0.629186    0.611922    3.191596
H     -1.532791    0.687207    2.812582
H     -0.515494    -1.261623    2.990426
O     0.327137    0.034297    -1.942404
H     -0.356516    0.026587    -2.637714
H     1.189462    0.074727    -2.396150
