17

Co     -0.001543    0.000818    -0.000703
Cl     0.341007    2.279639    -0.369774
Cl     2.273498    -0.383489    -0.349474
Cl     -0.344299    -2.278048    0.367872
Cl     -2.276521    0.385004    0.348447
C     0.309421    0.261650    1.836266
N     0.497421    0.424172    2.973373
C     0.714279    0.625252    4.353234
H     1.344492    -0.176698    4.750541
H     -0.243950    0.624259    4.882393
H     1.212270    1.586603    4.514373
C     -0.311992    -0.260297    -1.837714
N     -0.499316    -0.423463    -2.974842
C     -0.713285    -0.626471    -4.354866
H     -1.382001    -1.479980    -4.505040
H     0.241358    -0.826516    -4.851699
H     -1.167110    0.266835    -4.795566
