15

Co     0.008242    0.003151    -0.048848
O     0.477768    2.061064    0.312311
H     0.142658    2.641971    -0.394341
H     0.094078    2.390166    1.145451
O     2.067204    -0.465872    0.249561
H     2.650834    0.192372    -0.168944
H     2.306578    -0.485333    1.194515
O     -0.432414    -2.055080    -0.405679
H     0.204582    -2.475523    -1.011038
H     -0.436066    -2.588333    0.410167
O     -2.055470    0.492183    -0.339704
H     -2.630422    0.121356    0.353724
H     -2.396361    0.160010    -1.189867
Cl     -0.370926    -0.313592    2.143747
Cl     0.370108    0.322123    -2.215703
