29

Co     -0.001984    -0.161055    0.017523
N     0.256694    1.988005    -0.297671
H     -0.167859    2.557975    0.441259
H     -0.151382    2.285855    -1.190461
H     1.246453    2.252837    -0.329503
N     2.155221    -0.445595    -0.247677
H     2.713288    0.043890    0.459531
H     2.484625    -0.130530    -1.165659
H     2.428857    -1.431006    -0.179421
N     -0.242150    -2.303079    0.383756
H     0.304030    -2.612227    1.194747
H     0.036959    -2.880519    -0.416147
H     -1.217091    -2.546091    0.586373
N     -2.155589    0.149766    0.255970
H     -2.451008    0.081448    1.235124
H     -2.717024    -0.523623    -0.275821
H     -2.462792    1.071306    -0.070958
N     0.294811    0.159569    2.042453
C     0.461385    0.331735    3.183606
C     0.668198    0.541905    4.601942
H     1.703574    0.294483    4.870066
H     0.473394    1.593504    4.854037
H     -0.017418    -0.093861    5.178405
N     -0.300643    -0.492399    -1.998526
C     -0.472815    -0.680159    -3.136512
C     -0.685812    -0.911200    -4.550121
H     0.251754    -0.758304    -5.100515
H     -1.030781    -1.942539    -4.709324
H     -1.448599    -0.219362    -4.932251
