25

Co     -0.022315    -0.016119    -0.052213
N     -0.116369    1.946624    -0.484053
H     0.577904    2.122150    -1.219644
P     -0.910503    3.316597    -0.156692
H     -1.786228    2.780253    0.841123
N     1.957033    0.265633    0.228053
H     2.081473    1.270049    0.389937
P     3.401218    -0.462264    0.267711
H     2.943430    -1.795623    0.017914
N     0.212078    -1.952215    0.358941
H     0.871636    -2.022425    1.139918
P     -0.319546    -3.426224    -0.041167
H     -1.198821    -3.026346    -1.097533
N     -1.974383    -0.321259    -0.357282
H     -2.067800    -0.931563    -1.176303
P     -3.442840    0.037618    0.218418
H     -3.006951    0.853227    1.311521
N     -0.336933    0.214118    1.897438
H     -1.037220    -0.475695    2.188102
P     0.187359    1.044055    3.182550
H     1.121474    1.877672    2.489608
N     0.179651    -0.248479    -2.037688
H     -0.539337    0.328920    -2.489330
P     1.093249    -0.954408    -3.168789
H     1.975778    -1.645177    -2.277485
