18

Co     -0.022188    -0.019390    0.013075
C     -0.330814    -0.341453    -1.919084
O     -0.515141    -0.523580    -3.009696
O     -0.299390    1.887801    -0.161492
H     0.445237    2.431026    -0.508050
H     -1.145734    2.308190    -0.436796
O     1.857817    0.362415    -0.298525
H     2.352694    0.194835    -1.133521
H     2.499317    0.281581    0.443796
O     0.318531    -1.885613    0.389157
H     1.010071    -2.421669    -0.063997
H     -0.478263    -2.455388    0.502448
O     -1.880918    -0.398052    0.399469
H     -2.199723    -0.108898    1.287166
H     -2.637556    -0.347769    -0.229767
O     0.158522    0.267730    1.913671
H     0.301583    1.170600    2.277941
H     0.565953    -0.402366    2.508532
