25

Co     -0.065515    -0.257526    0.002960
N     -0.284682    1.683843    0.196134
P     -1.180382    2.478017    1.155645
H     -1.169733    3.882372    1.114604
H     -2.067541    1.973488    2.129798
N     1.843595    -0.019461    -0.344467
P     2.910660    0.825419    0.361054
H     2.754445    1.676720    1.476548
H     4.234938    0.800893    -0.107282
N     0.153545    -2.198950    -0.190334
P     1.049634    -2.993145    -1.149465
H     1.038655    -4.397507    -1.108732
H     1.937509    -2.488617    -2.122966
N     -1.974659    -0.495516    0.350387
P     -3.041545    -1.340819    -0.354903
H     -2.885083    -2.192666    -1.469940
H     -4.365899    -1.316178    0.113210
N     0.295229    -0.408425    1.922896
P     0.052160    -1.538912    2.928815
H     -0.520652    -2.807464    2.692247
H     0.418636    -1.359325    4.273080
N     -0.426284    -0.106723    -1.916955
P     -0.183037    1.023801    -2.922798
H     0.390049    2.292213    -2.686168
H     -0.549560    0.844345    -4.267065
