33

Co     -0.070370    -0.101552    0.234452
C     0.398259    3.107111    -0.343376
N     0.247365    1.994583    -0.062814
C     0.587502    4.505847    -0.698517
H     0.550040    4.617904    -1.787385
H     1.559390    4.855037    -0.334877
H     -0.203404    5.114714    -0.248438
C     3.072116    -0.651100    -0.447278
N     1.985328    -0.447838    -0.102963
C     4.436034    -0.906779    -0.882305
H     5.069376    -0.043086    -0.655099
H     4.447351    -1.087685    -1.962827
H     4.831911    -1.788836    -0.367936
C     -0.552151    -3.283577    0.606640
N     -0.365498    -2.141062    0.571184
C     -0.788166    -4.717611    0.644608
H     0.167449    -5.251878    0.663856
H     -1.350276    -5.020159    -0.245883
H     -1.364812    -4.977336    1.538709
C     -3.286086    0.390296    0.500247
N     -2.139226    0.230680    0.512362
C     -4.726651    0.589078    0.482464
H     -5.200639    -0.053234    1.232237
H     -5.119167    0.333404    -0.507908
H     -4.962687    1.635008    0.703893
C     0.469090    0.453801    3.437811
N     0.282916    0.271585    2.309541
C     0.702217    0.681217    4.855697
H     -0.249643    0.658153    5.396700
H     1.174668    1.658137    5.002875
H     1.359888    -0.098580    5.254009
C     -0.380230    -0.156344    -1.762655
N     -0.581786    -0.369484    -2.902711
