73
03/24/2023 16:57, XYZ structure generated by mol3D Class, molSimplify
Co     -0.058956    -0.057815    -0.014961
O     -0.383321    1.918017    0.173088
C     -0.817495    2.695988    1.094271
N     -1.976244    3.378397    1.022391
C     -2.067869    4.386984    2.094825
C     -0.978860    3.892615    3.084099
N     -0.177367    2.997698    2.231707
H     -3.063523    4.398204    2.540827
H     -1.842966    5.383820    1.700866
H     -1.412602    3.335061    3.921431
H     -0.371793    4.709796    3.477448
H     -2.485016    3.452756    0.152151
H     0.651240    2.491217    2.531158
O     1.921962    0.281038    -0.165470
C     2.807377    -0.169870    -0.971535
N     4.072576    0.286825    -1.020177
C     4.810561    -0.326101    -2.140967
C     3.931820    -1.563264    -2.444584
N     2.634709    -1.160715    -1.867048
H     5.826041    -0.593111    -1.844989
H     4.854229    0.364040    -2.990392
H     4.311277    -2.461671    -1.944741
H     3.844732    -1.762644    -3.513909
H     4.322497    1.186671    -0.631632
H     1.850127    -1.793352    -1.744288
O     0.246128    -2.021689    -0.446856
C     -0.166519    -3.081152    0.140768
N     -0.654304    -3.169445    1.388331
C     -1.166428    -4.520074    1.671819
C     -0.520286    -5.349902    0.532461
N     -0.172891    -4.297103    -0.437708
H     -2.260799    -4.533925    1.617888
H     -0.857039    -4.861924    2.661128
H     -1.211683    -6.073323    0.097612
H     0.380606    -5.875144    0.867655
H     -0.845683    -2.335703    1.928701
H     0.309623    -4.479232    -1.306481
O     -1.969116    -0.381630    0.395166
C     -2.999197    -0.617156    -0.321726
N     -4.260844    -0.452383    0.114195
C     -5.229425    -1.000107    -0.852600
C     -4.366778    -1.087502    -2.137099
N     -2.999616    -1.087917    -1.583439
H     -6.089795    -0.339044    -0.967741
H     -5.578790    -1.985596    -0.525929
H     -4.516528    -0.217982    -2.787186
H     -4.561892    -1.996128    -2.708827
H     -4.464323    -0.332219    1.097833
H     -2.160219    -0.979451    -2.142173
O     0.174394    -0.442793    2.007540
C     1.026361    -0.125037    2.889652
N     2.037888    0.788690    2.736508
C     2.966798    0.684905    3.888568
C     2.064764    0.051152    4.971839
N     1.043684    -0.608067    4.140827
H     3.346140    1.665485    4.178732
H     3.811603    0.033398    3.640303
H     1.602179    0.803898    5.619689
H     2.596388    -0.672127    5.592168
H     2.403292    0.877002    1.791435
H     0.265626    -1.128665    4.523958
O     -0.358319    0.110430    -2.017764
C     -0.064525    1.040123    -2.844915
N     -0.267768    0.936857    -4.172531
C     0.316382    2.083642    -4.890953
C     0.486942    3.109561    -3.743907
N     0.479268    2.238310    -2.552907
H     -0.351579    2.438568    -5.677234
H     1.276633    1.804703    -5.338228
H     -0.348742    3.817521    -3.706636
H     1.420290    3.669893    -3.818415
H     -0.417759    0.037139    -4.609778
H     0.402765    2.590771    -1.604795
