13

Co     0.001129    -0.042744    -0.000496
C     -0.000927    2.259996    0.001955
O     0.001037    3.386938    0.003404
C     2.302447    -0.027180    -0.000258
O     3.429141    -0.003007    -0.001005
C     0.003021    -2.345803    -0.003091
O     0.002036    -3.472771    -0.006204
C     -2.302902    -0.025729    -0.000328
O     -3.429720    -0.006155    -0.000892
N     -0.001187    -0.028334    3.135478
C     -0.002681    -0.037684    1.954118
N     -0.001312    -0.024074    -3.136588
C     -0.002824    -0.033998    -1.955211
