33

Co     0.002821    0.001995    0.093567
C     -0.000039    2.176723    0.160110
N     -0.003205    3.332486    0.072880
C     -0.007792    4.756864    -0.070270
H     0.830433    5.049712    -0.707177
H     0.093109    5.214832    0.916635
H     -0.950485    5.062049    -0.530785
C     2.177295    0.005559    0.158848
N     3.333161    0.008559    0.073083
C     4.757823    0.012757    -0.067156
H     5.051567    -0.824124    -0.705416
H     5.213623    -0.090716    0.920492
H     5.064508    0.956372    -0.524761
C     0.005339    -2.173432    0.159175
N     0.006690    -3.329189    0.071787
C     0.008407    -4.753565    -0.071541
H     -0.831893    -5.044792    -0.706458
H     -0.090921    -5.211492    0.915539
H     0.949447    -5.060398    -0.534325
C     -2.172160    -0.000434    0.166284
N     -3.328350    -0.002300    0.084824
C     -4.753477    -0.004568    -0.050801
H     -5.136848    0.983564    0.214248
H     -5.173255    -0.760844    0.616694
H     -5.006588    -0.237950    -1.088160
C     0.002533    -0.002074    2.326372
N     0.000521    -0.006705    3.486222
C     -0.003305    -0.013761    4.918076
H     0.609838    -0.846994    5.269933
H     -1.031412    -0.131910    5.268826
H     0.408595    0.931916    5.278688
C     -0.005629    -0.001301    -1.867526
N     -0.011692    -0.002927    -3.045944
