27

Co     -0.000817    -0.000109    -0.001953
N     -0.001765    1.909745    -0.000974
C     -0.003033    3.062685    -0.000140
C     -0.001712    4.518107    0.000186
H     0.547901    4.888371    0.871346
H     0.472333    4.888907    -0.914127
H     -1.030563    4.889010    0.044194
N     1.909181    -0.000967    -0.001965
C     3.062125    -0.002379    -0.001017
C     4.517546    -0.003833    0.002203
H     4.890080    0.808522    -0.629591
H     4.887074    0.132435    1.023462
H     4.887083    -0.956114    -0.390731
N     -0.000569    -1.910188    -0.002333
C     0.001839    -3.063117    -0.001227
C     0.006240    -4.518470    0.002339
H     0.818803    -4.887716    -0.631114
H     0.146168    -4.887094    1.023412
H     -0.945242    -4.892172    -0.388471
N     -1.910608    0.000664    -0.001804
C     -3.063545    0.002230    -0.000936
C     -4.518933    0.004211    0.001732
H     -4.891382    -0.830759    -0.599929
H     -4.889089    -0.094438    1.027107
H     -4.888045    0.941400    -0.426445
I     -0.000504    -0.000927    2.689659
I     -0.000564    0.000881    -2.692875
