30

Co     -0.015424    0.018717    0.165443
N     0.310141    2.033684    -0.133499
C     0.502832    3.160000    -0.355216
C     0.741942    4.562339    -0.628379
H     -0.131879    5.155126    -0.326661
H     1.615394    4.908889    -0.059979
H     0.926140    4.708436    -1.700013
N     1.967257    -0.277366    0.369575
C     3.115244    -0.442965    0.488402
C     4.536658    -0.646233    0.647972
H     5.088686    0.099786    0.059714
H     4.809788    -0.542601    1.707413
H     4.811867    -1.652107    0.302055
N     -0.339382    -1.998041    0.465282
C     -0.512081    -3.143434    0.579725
C     -0.726341    -4.568740    0.725809
H     0.031946    -5.119625    0.154237
H     -0.662550    -4.851589    1.783898
H     -1.720329    -4.836054    0.342165
N     -1.960602    0.267296    -0.291943
C     -3.087527    0.407459    -0.556239
C     -4.485909    0.581723    -0.874107
H     -4.713711    1.650433    -0.987817
H     -4.721210    0.062128    -1.813583
H     -5.105844    0.165714    -0.067814
O     -0.304241    0.344347    2.130818
H     -0.470240    -0.353389    2.794507
H     -0.305235    1.215227    2.574576
C     0.319088    -0.360407    -2.076656
O     0.485537    -0.548890    -3.173293
