29

Co     0.000302    0.001937    0.007386
N     -0.168769    2.017276    0.008686
H     -1.146179    2.325753    0.029037
H     0.270618    2.464023    0.820460
H     0.236858    2.463485    -0.820818
N     2.015682    0.171496    0.009630
H     2.323829    1.148921    -0.014786
H     2.460522    -0.230089    0.841827
H     2.464120    -0.271407    -0.799289
N     0.169464    -2.013544    0.010396
H     1.146984    -2.321922    0.026604
H     -0.266196    -2.459468    0.824659
H     -0.239770    -2.460713    -0.816789
N     -2.015085    -0.167165    0.001413
H     -2.323614    -1.144731    -0.007909
H     -2.464056    0.248645    0.824322
H     -2.459006    0.262238    -0.817274
C     -0.004140    0.001376    1.975502
N     -0.006120    -0.001469    3.132737
C     -0.008924    -0.006176    4.577297
H     0.666492    -0.794192    4.922432
H     -1.029016    -0.199968    4.920989
H     0.333322    0.971547    4.928185
C     0.004645    0.001166    -1.960715
N     0.006005    0.000486    -3.117965
C     0.007593    -0.000847    -4.562652
H     -0.540819    -0.881580    -4.908754
H     1.044767    -0.036145    -4.907822
H     -0.480288    0.914155    -4.910515
