22

Co     0.078882    -0.028331    0.145934
N     -0.128498    2.157931    0.317454
H     0.264613    2.405306    1.230144
H     -1.095251    2.491271    0.340046
H     0.354820    2.748844    -0.363615
N     2.207753    0.230950    -0.305694
H     2.719273    -0.144051    0.498487
H     2.492402    1.210054    -0.377116
H     2.595509    -0.227390    -1.133361
N     0.241847    -2.159447    -0.378514
H     1.121974    -2.424017    -0.827334
H     -0.501579    -2.534223    -0.973212
H     0.214672    -2.703766    0.488034
N     -2.107461    -0.257267    0.360987
H     -2.374793    -1.227931    0.539959
H     -2.601191    0.015052    -0.492085
H     -2.518128    0.283902    1.125711
O     0.377722    -0.277043    1.856566
H     -0.007791    -0.532104    2.717535
O     -0.492489    0.216314    -1.969047
H     -0.152213    -0.328393    -2.700852
H     -0.690081    1.084342    -2.363649
