21

Co     0.000095    0.000004    0.000071
N     -0.176876    2.032365    0.011032
H     -1.157316    2.340013    0.042531
H     0.269953    2.490078    0.817344
H     0.219353    2.496542    -0.817778
N     2.032413    0.176606    -0.013916
H     2.340375    1.157228    -0.035318
H     2.498282    -0.229149    0.809300
H     2.488133    -0.261209    -0.826289
N     0.176872    -2.032353    -0.006020
H     1.157624    -2.340485    0.004306
H     -0.254179    -2.495479    0.805778
H     -0.235706    -2.490689    -0.830069
N     -2.032312    -0.176805    0.009248
H     -2.340396    -1.157461    -0.008442
H     -2.488972    0.228759    0.837708
H     -2.497134    0.261086    -0.797899
C     0.011762    -0.007118    1.961608
O     0.018238    -0.011159    3.084859
C     -0.011709    0.007444    -1.961436
O     -0.018273    0.011725    -3.084687
