27

Co     0.000183    0.000001    -0.000486
N     0.051687    2.133491    0.000436
C     0.032487    3.289323    0.000878
C     0.005221    4.746005    0.000683
H     -0.480170    5.109264    0.911990
H     1.025666    5.139172    -0.040088
H     -0.550152    5.106619    -0.870791
N     2.133980    0.046732    -0.001930
C     3.289824    0.029160    -0.001806
C     4.746615    0.006618    0.000669
H     5.133656    0.812657    -0.630308
H     5.119491    0.138919    1.021214
H     5.103654    -0.951548    -0.389272
N     -0.050196    -2.133860    -0.002106
C     -0.031536    -3.289625    -0.001927
C     -0.005985    -4.746391    0.000729
H     0.812307    -5.104767    -0.631564
H     0.141441    -5.113983    1.021149
H     -0.951544    -5.137028    -0.387539
N     -2.133784    -0.047230    -0.000450
C     -3.289651    -0.029603    0.000095
C     -4.746391    -0.006554    0.001074
H     -5.132870    -0.834667    -0.600940
H     -5.120782    -0.101828    1.025210
H     -5.102505    0.937103    -0.423695
I     -0.004988    0.004577    2.850561
I     0.004343    -0.003674    -2.851781
