27

Co     -0.081244    -0.079674    0.015602
P     -0.470228    2.250082    0.250413
H     -1.236154    2.687965    1.347614
H     0.667544    3.075622    0.331833
H     -1.157409    2.794285    -0.848981
P     2.234923    0.288951    0.388956
H     2.606855    0.917154    1.592665
H     3.075838    -0.840624    0.371111
H     2.812213    1.115189    -0.591058
P     0.350978    -2.386031    -0.341347
H     1.248007    -2.607179    -1.401061
H     0.925164    -3.118441    0.715383
H     -0.747916    -3.191466    -0.697418
P     -2.385003    -0.432309    -0.444742
H     -2.595273    -1.060559    -1.684939
H     -3.114627    -1.245294    0.443950
H     -3.200001    0.711940    -0.538768
P     -0.472126    -0.461540    2.293466
H     0.635260    -0.330935    3.152200
H     -1.424577    0.377921    2.901027
H     -0.953354    -1.742556    2.623148
C     0.397000    0.401896    -3.025911
N     0.219109    0.222002    -1.890791
C     0.618796    0.626392    -4.444990
H     1.262222    -0.163563    -4.852694
H     1.104918    1.598167    -4.598471
H     -0.339969    0.617730    -4.978743
