19

Co     0.000158    0.000192    -0.001040
N     -0.157326    1.947428    0.361632
H     -1.114011    2.221933    0.587387
H     0.415469    2.210198    1.166737
H     0.112992    2.486304    -0.464588
N     1.960743    0.202065    -0.247325
H     2.272179    1.167554    -0.133391
H     2.469969    -0.352318    0.444947
H     2.225194    -0.074358    -1.195644
N     0.158127    -1.948261    -0.357545
H     1.119629    -2.228697    -0.553362
H     -0.138986    -2.484782    0.460857
H     -0.393157    -2.208749    -1.178404
N     -1.961338    -0.201145    0.240546
H     -2.278572    -1.159369    0.087901
H     -2.221800    0.040664    1.199509
H     -2.469841    0.381251    -0.428731
Cl     0.330494    -0.369894    2.228205
Cl     -0.329731    0.369970    -2.229952
