23

Co     -0.011660    0.015697    0.104311
N     -0.327176    2.182244    0.359146
H     -1.314159    2.434365    0.489793
H     0.164565    2.580837    1.169065
H     -0.015225    2.729871    -0.453612
N     2.131983    0.240950    -0.302181
H     2.393981    1.234433    -0.344846
H     2.751122    -0.179170    0.402780
H     2.429544    -0.153868    -1.204062
N     0.223388    -2.142122    -0.302889
H     1.205734    -2.433971    -0.373672
H     -0.189961    -2.748856    0.416756
H     -0.207698    -2.431575    -1.190641
N     -2.189771    -0.259821    0.229930
H     -2.449148    -1.243855    0.088347
H     -2.602631    0.000249    1.134876
H     -2.718918    0.264228    -0.479018
N     0.346124    -0.203718    2.230718
H     -0.462765    0.077337    2.799896
H     0.541887    -1.176700    2.497255
H     1.137683    0.348842    2.582976
C     -0.341791    0.349559    -2.238865
O     -0.495530    0.515678    -3.340064
