53

Co     -0.046941    -0.143210    -0.040578
C     -0.337550    4.887772    0.716992
C     0.704144    4.334191    -0.027572
C     0.739245    2.941625    -0.227064
N     -0.186751    2.096666    0.272464
C     -1.190021    2.642024    0.989016
C     -1.305181    4.024742    1.231948
H     -0.393999    5.958426    0.889067
H     1.483138    4.954021    -0.460396
H     1.534887    2.498179    -0.815625
H     -1.925889    1.954531    1.391824
H     -2.139253    4.397181    1.818609
C     4.936305    0.374683    0.948287
C     3.981740    1.024416    1.730886
C     2.617970    0.864105    1.422167
N     2.170755    0.107218    0.397492
C     3.102898    -0.511915    -0.354987
C     4.487167    -0.407499    -0.115877
H     5.996547    0.473992    1.160591
H     4.268708    1.644553    2.574391
H     1.863537    1.355282    2.026965
H     2.741928    -1.113626    -1.182168
H     5.182139    -0.934211    -0.762714
C     0.583948    -5.063650    -0.808317
C     1.280719    -4.398901    0.201628
C     1.070579    -3.024367    0.382863
N     0.222829    -2.297429    -0.378031
C     -0.445492    -2.950984    -1.353263
C     -0.296519    -4.324081    -1.599361
H     0.722126    -6.127934    -0.973379
H     1.974803    -4.925402    0.848899
H     1.597265    -2.489043    1.165418
H     -1.119666    -2.355744    -1.959570
H     -0.862542    -4.789570    -2.400113
C     -5.033709    -0.351395    -0.819717
C     -4.380969    -1.350668    -0.096459
C     -2.992926    -1.259961    0.093955
N     -2.241428    -0.251596    -0.397262
C     -2.883346    0.705330    -1.102843
C     -4.267781    0.696784    -1.331857
H     -6.107171    -0.388510    -0.980119
H     -4.923681    -2.190812    0.325144
H     -2.470313    -2.022253    0.661180
H     -2.270094    1.506097    -1.501529
H     -4.719602    1.500151    -1.905215
P     -0.456829    -0.669201    2.646839
H     -1.237428    0.197459    3.443323
H     0.645572    -0.790745    3.521983
H     -1.107144    -1.875729    2.986462
P     0.296908    0.322926    -2.766013
H     0.203041    1.640255    -3.268286
H     -0.609641    -0.285234    -3.662443
H     1.491479    -0.045148    -3.424583
