21

Co     -0.002085    -0.004775    -0.005510
C     -0.320899    1.875562    -0.276841
N     -0.513348    3.015692    -0.441956
C     1.876678    0.271114    -0.329501
N     3.015923    0.438534    -0.525115
C     0.316488    -1.885053    0.265104
N     0.509402    -3.025169    0.429634
C     -1.880787    -0.280375    0.318787
N     -3.020017    -0.447536    0.514687
C     0.268376    0.296261    1.798779
N     0.438191    0.485814    2.934443
C     0.644911    0.718070    4.312926
H     1.364511    -0.006796    4.705620
H     -0.302349    0.613661    4.850766
H     1.034378    1.729813    4.462014
C     -0.271850    -0.303669    -1.810302
N     -0.440576    -0.488788    -2.946879
C     -0.642090    -0.707720    -4.328297
H     -1.138141    -1.671020    -4.481353
H     0.322466    -0.712875    -4.845209
H     -1.267532    0.089877    -4.740798
