17

Co     0.088391    -0.052406    -0.003223
C     -0.254590    2.163939    0.316235
O     -0.422960    3.262164    0.474047
C     2.313722    0.256008    0.336116
O     3.413202    0.404153    0.503237
C     0.488378    -2.268096    -0.305445
O     0.696813    -3.360676    -0.452945
C     -2.124528    -0.418128    -0.333028
O     -3.218528    -0.605295    -0.499364
N     -0.388071    -0.280488    2.199536
H     -1.196285    0.277734    2.512203
H     0.426261    0.002872    2.766497
H     -0.589131    -1.269181    2.415411
N     0.171203    0.420028    -2.204911
H     -0.600507    1.019197    -2.533948
H     0.141629    -0.452515    -2.755166
H     1.055016    0.900692    -2.435253
