37

Co     0.036403    -0.058869    -0.038337
N     0.171206    1.996728    -0.419217
H     -0.694821    2.472874    -0.170362
P     1.347054    3.011827    -0.907068
H     2.397145    2.256201    -1.434969
H     0.984850    3.922276    -1.918368
H     1.960682    3.834445    0.061725
N     2.053383    -0.356184    -0.361410
H     2.400850    -0.449147    -1.313718
P     3.234694    -0.505136    0.757076
H     2.988833    -1.475360    1.739229
H     4.459640    -0.881920    0.180650
H     3.540627    0.647951    1.499067
N     -0.098056    -2.115798    0.340884
H     0.773134    -2.587780    0.102139
P     -1.266748    -3.135447    0.836311
H     -2.344083    -2.379243    1.305011
H     -1.835140    -4.005716    -0.118045
H     -0.920938    -4.000164    1.892899
N     -1.979507    0.240881    0.285399
H     -2.329122    0.326340    1.237645
P     -3.159648    0.391754    -0.834242
H     -2.909613    1.361804    -1.815329
H     -3.467842    -0.760347    -1.577013
H     -4.384291    0.771329    -0.258990
N     0.556056    0.201997    2.084775
H     0.465126    -0.724455    2.501401
P     0.333250    1.383764    3.175975
H     0.584827    2.612220    2.556144
H     -0.939495    1.564237    3.763362
H     1.187781    1.355995    4.295613
N     -0.481090    -0.318551    -2.161080
H     -0.390109    0.607806    -2.577877
P     -0.262153    -1.501630    -3.251513
H     -0.508672    -2.729233    -2.628082
H     -1.122378    -1.477253    -4.366896
H     1.007855    -1.680738    -3.845179
