21

Co     -0.000002    -0.000017    0.000000
C     0.000007    2.278315    0.000000
O     -0.000003    3.401565    -0.000000
C     2.278299    0.000084    0.000192
O     3.401598    0.000034    0.000097
C     -0.000019    -2.278358    0.000001
O     0.000015    -3.401575    0.000000
C     -2.278319    0.000058    -0.000191
O     -3.401581    0.000054    -0.000097
C     0.000048    0.000207    2.068990
N     0.000235    0.000360    3.232212
C     0.000026    0.000005    4.654091
H     0.611636    -0.844256    5.006278
H     -1.036963    -0.108069    5.005994
H     0.425123    0.951672    5.007043
C     -0.000046    0.000207    -2.069035
N     -0.000234    0.000361    -3.232165
C     -0.000016    0.000034    -4.654093
H     -0.611633    -0.844260    -5.006284
H     1.036962    -0.108086    -5.005995
H     -0.425134    0.951667    -5.007040
