18

Co     -0.000105    0.000209    -0.034348
C     -0.000923    1.961417    -0.031135
O     -0.001492    3.082281    -0.009218
C     1.957199    -0.001077    -0.081887
O     3.078154    -0.001982    -0.108925
C     0.001097    -1.961073    -0.031587
O     0.002030    -3.082004    -0.009617
C     -1.957453    0.001421    -0.082114
O     -3.078251    0.002167    -0.109417
O     -0.000085    -0.000162    1.965486
H     0.789675    0.034847    2.550343
H     -0.789881    -0.034940    2.550305
C     -0.000339    0.000541    -1.954457
N     -0.000456    0.000515    -3.107335
C     -0.000053    -0.000252    -4.553773
H     -0.612061    -0.844564    -4.890893
H     1.037171    -0.109235    -4.890478
H     -0.424226    0.951890    -4.892269
