23

Co     -0.002691    0.011097    0.039591
N     -0.311453    2.189362    0.241643
H     -1.277364    2.429283    0.003162
H     -0.116298    2.620920    1.149210
H     0.259812    2.673826    -0.457010
N     2.154568    0.254591    -0.278955
H     2.493327    1.179378    0.001548
H     2.786617    -0.420561    0.160648
H     2.309404    0.197199    -1.290642
N     0.205385    -2.140695    -0.389529
H     1.168220    -2.399460    -0.621207
H     -0.106383    -2.815320    0.314983
H     -0.335389    -2.322323    -1.241067
N     -2.177382    -0.248969    0.339250
H     -2.414256    -1.224243    0.540965
H     -2.640222    0.308559    1.062245
H     -2.639208    -0.028753    -0.548497
N     0.309236    -0.208761    2.231147
H     -0.473656    0.118264    2.803893
H     0.451632    -1.183361    2.510445
H     1.129199    0.292218    2.584269
C     -0.341064    0.317428    -1.934829
N     -0.432404    0.401017    -3.100826
