15

Co     -0.201502    0.038292    0.033169
S     0.054702    2.676214    0.422098
H     1.096867    2.732765    1.277718
H     0.775294    3.055433    -0.654262
S     2.411350    -0.443708    -0.456676
H     3.039624    0.187371    0.556862
H     2.731863    0.480585    -1.385840
S     -0.671244    -2.575013    -0.304196
H     0.283451    -3.099538    0.492550
H     0.004151    -2.805506    -1.449619
S     -2.789374    0.443132    0.500391
H     -3.018510    -0.531047    1.406716
H     -3.317867    -0.249676    -0.530917
F     0.080638    -0.230152    1.716976
F     -0.462304    0.302868    -1.654167
