23

Co     -0.005936    0.004076    0.001422
P     -0.404052    2.380963    0.178902
H     -1.525595    2.706926    0.963518
H     0.632903    3.105587    0.796029
H     -0.623110    3.089581    -1.019103
P     2.370233    0.408384    -0.189445
H     3.096709    0.574364    1.006412
H     3.082628    -0.602667    -0.861383
H     2.689117    1.561761    -0.929559
P     0.403874    -2.374019    0.131464
H     1.551701    -2.714646    0.870869
H     -0.609640    -3.115946    0.767124
H     0.585640    -3.058712    -1.086522
P     -2.385293    -0.396086    -0.116925
H     -2.734928    -1.533018    -0.868854
H     -3.062584    -0.590232    1.103274
H     -3.126813    0.628399    -0.735119
O     0.021307    0.008654    1.992912
H     0.787249    0.224889    2.560074
H     -0.696977    -0.292209    2.583340
O     -0.014871    0.017734    -1.990431
H     -0.312431    0.756067    -2.557032
H     0.201868    -0.729020    -2.582703
