57

Co     -0.021641    -0.061334    -0.035654
C     -0.803623    4.888090    0.569444
C     0.232629    4.424659    -0.240914
C     0.423455    3.039193    -0.380907
N     -0.344825    2.122745    0.240251
C     -1.338768    2.579046    1.027332
C     -1.604694    3.946614    1.215947
H     -0.982274    5.951748    0.693624
H     0.889349    5.111142    -0.765345
H     1.213616    2.655721    -1.016310
H     -1.940976    1.828878    1.528384
H     -2.424560    4.249042    1.859989
C     4.940435    0.541440    0.850344
C     3.990510    1.160774    1.662579
C     2.624367    0.986317    1.374024
N     2.178255    0.243241    0.342879
C     3.102625    -0.344804    -0.441794
C     4.487150    -0.221719    -0.225593
H     6.002354    0.651095    1.048902
H     4.284508    1.771656    2.510313
H     1.869077    1.453833    1.996579
H     2.728617    -0.932009    -1.273489
H     5.180017    -0.720000    -0.896177
C     0.814532    -5.008063    -0.543280
C     1.376691    -4.293891    0.514491
C     1.119719    -2.916335    0.621682
N     0.354492    -2.237777    -0.257335
C     -0.180259    -2.934548    -1.278934
C     0.018887    -4.315113    -1.455901
H     0.990375    -6.073537    -0.653184
H     2.003643    -4.780812    1.254755
H     1.534173    -2.343276    1.443615
H     -0.787013    -2.373778    -1.982102
H     -0.446175    -4.819634    -2.296961
C     -4.924406    -0.803978    -0.858760
C     -4.218759    -1.603230    0.041601
C     -2.853868    -1.352581    0.250555
N     -2.180397    -0.370596    -0.382864
C     -2.870254    0.398622    -1.249643
C     -4.236515    0.217380    -1.515090
H     -5.981178    -0.972277    -1.043786
H     -4.704666    -2.411204    0.579319
H     -2.282969    -1.955671    0.947769
H     -2.310774    1.180092    -1.751603
H     -4.737056    0.869561    -2.223818
N     -0.327967    -0.390202    2.137536
C     -0.501631    -0.536359    3.275625
C     -0.721153    -0.725875    4.704466
H     -0.066345    -1.518326    5.082330
H     -0.505791    0.201107    5.246660
H     -1.762889    -1.009666    4.888986
N     0.296031    0.303262    -2.176281
C     0.453890    0.461280    -3.315031
C     0.646817    0.660912    -4.746170
H     -0.236640    0.315548    -5.294125
H     0.803750    1.723563    -4.960422
H     1.520074    0.096687    -5.090884
