47

Co     -0.150024    0.036343    -0.034053
N     0.734588    1.741965    0.141938
C     1.264989    2.765578    0.243021
C     1.930993    4.053035    0.366362
H     2.800685    3.960536    1.027005
H     2.267204    4.393547    -0.619833
H     1.239829    4.792049    0.787260
N     1.558027    -0.854575    -0.043079
C     2.581999    -1.393412    -0.046208
C     3.869317    -2.070736    -0.049979
H     3.782964    -3.037880    0.458651
H     4.201515    -2.233495    -1.081744
H     4.614263    -1.457485    0.470171
N     -1.027928    -1.674070    -0.205412
C     -1.546793    -2.704831    -0.290630
C     -2.198817    -4.000905    -0.397134
H     -2.429558    -4.383790    0.603612
H     -3.127734    -3.905441    -0.970793
H     -1.535492    -4.710694    -0.904543
N     -1.859478    0.927905    -0.066450
C     -2.882520    1.468228    -0.089608
C     -4.168398    2.147903    -0.118616
H     -4.919773    1.504562    -0.590573
H     -4.487104    2.386400    0.902688
H     -4.085015    3.078537    -0.691697
C     -0.376797    -0.321624    4.745049
C     -1.489754    -0.608414    3.953075
C     -1.388824    -0.495534    2.571668
N     -0.240473    -0.115642    1.967593
C     0.839269    0.164878    2.730741
C     0.805788    0.071711    4.116707
H     -0.429995    -0.402502    5.826739
H     -2.432322    -0.917643    4.393063
H     -2.236014    -0.711746    1.934692
H     1.738839    0.470059    2.214289
H     1.698732    0.307294    4.686585
C     0.045251    0.415717    -4.828771
C     -0.315191    1.506210    -4.035879
C     -0.357909    1.358318    -2.654791
N     -0.062179    0.186120    -2.048869
C     0.289528    -0.871602    -2.814220
C     0.352735    -0.791602    -4.200172
H     0.085368    0.504216    -5.910445
H     -0.563247    2.467353    -4.474671
H     -0.635258    2.189500    -2.020953
H     0.521457    -1.794103    -2.300417
H     0.640204    -1.668939    -4.770414
