49

Co     -0.002963    0.007907    0.005082
C     0.030709    -0.049230    1.925655
O     0.047066    -0.078866    3.052533
C     -0.043560    0.071408    -1.916047
O     -0.068796    0.105177    -3.042661
C     0.016080    4.829542    0.140367
C     0.860329    4.090180    0.971817
C     0.836944    2.702547    0.904681
N     0.002319    2.033468    0.068839
C     -0.826321    2.752666    -0.730902
C     -0.835734    4.141948    -0.727075
H     0.020876    5.915334    0.168907
H     1.535672    4.574896    1.669683
H     1.507218    2.114770    1.519205
H     -1.502951    2.202623    -1.373081
H     -1.508053    4.669044    -1.396677
C     4.818347    -0.019456    -0.117581
C     4.123066    -0.847437    0.766628
C     2.733910    -0.818047    0.776708
N     2.022329    0.006475    -0.033829
C     2.699328    0.821620    -0.882500
C     4.086816    0.825155    -0.955927
H     5.903903    -0.031329    -0.151396
H     4.643465    -1.516585    1.444715
H     2.179218    -1.475271    1.434984
H     2.117410    1.492850    -1.501950
H     4.576924    1.485950    -1.664020
C     0.002575    -4.810320    -0.125559
C     -0.812315    -4.120958    0.775598
C     -0.797957    -2.731747    0.779613
N     -0.001543    -2.014828    -0.053884
C     0.796187    -2.684857    -0.923488
C     0.814466    -4.072627    -0.990390
H     0.005851    -5.896253    -0.153458
H     -1.458299    -4.644940    1.473103
H     -1.443672    -2.179741    1.451140
H     1.438873    -2.097235    -1.567092
H     1.460640    -4.559078    -1.714213
C     -4.825404    -0.030840    0.083087
C     -4.118429    -0.829866    -0.818414
C     -2.729556    -0.798359    -0.810075
N     -2.028911    -0.000446    0.036075
C     -2.716517    0.783340    0.905300
C     -4.105184    0.784269    0.959588
H     -5.911338    -0.042995    0.101764
H     -4.628540    -1.477211    -1.525045
H     -2.165212    -1.432613    -1.482070
H     -2.143088    1.429019    1.559139
H     -4.606150    1.419860    1.682830
