57

Co     0.004035    -0.080276    0.001763
C     0.032071    4.739272    0.014196
C     0.899230    4.024115    -0.813736
C     0.868217    2.634740    -0.790530
N     0.020582    1.943743    0.007261
C     -0.820033    2.638062    0.809228
C     -0.839866    4.027204    0.839558
H     0.036163    5.825209    0.015979
H     1.598758    4.530822    -1.470852
H     1.537994    2.054848    -1.411386
H     -1.493978    2.060102    1.426821
H     -1.533867    4.535802    1.500649
C     4.813279    -0.132751    0.213420
C     4.073498    0.702405    1.052424
C     2.685870    0.688453    0.972398
N     2.020458    -0.110631    0.106450
C     2.738152    -0.923011    -0.704568
C     4.126938    -0.958484    -0.678717
H     5.898403    -0.140882    0.254797
H     4.559820    1.363859    1.761903
H     2.087775    1.332490    1.603065
H     2.180087    -1.560971    -1.376722
H     4.654696    -1.628698    -1.349597
C     -0.055920    -4.892443    -0.013512
C     0.680072    -4.191281    0.943479
C     0.679262    -2.801704    0.916253
N     -0.018492    -2.097832    -0.005158
C     -0.733877    -2.777559    -0.931054
C     -0.772266    -4.166244    -0.966657
H     -0.070415    -5.978326    -0.016338
H     1.255190    -4.707871    1.705131
H     1.250143    -2.232826    1.637702
H     -1.288837    -2.189388    -1.649122
H     -1.358399    -4.662812    -1.733111
C     -4.806273    -0.049677    -0.215387
C     -4.133854    -0.888570    0.674902
C     -2.744947    -0.875016    0.703135
N     -2.013483    -0.072009    -0.104883
C     -2.665261    0.738257    -0.970918
C     -4.052559    0.774666    -1.052700
H     -5.891392    -0.037912    -0.256046
H     -4.673258    -1.552172    1.342589
H     -2.198527    -1.522770    1.375496
H     -2.055997    1.373654    -1.599813
H     -4.527525    1.443889    -1.762915
N     -0.104632    -0.071247    1.935807
C     -0.151963    -0.057376    3.092361
C     -0.208636    -0.041004    4.546770
H     0.744725    -0.388285    4.960877
H     -0.401112    0.977864    4.901550
H     -1.011097    -0.699291    4.898732
N     0.115156    -0.058490    -1.932334
C     0.166926    -0.039294    -3.088680
C     0.228618    -0.016311    -4.543174
H     -0.496553    -0.726261    -4.957500
H     -0.006340    0.989146    -4.911153
H     1.233824    -0.294104    -4.880536
