57

Co     -0.019519    -0.010533    0.006361
C     0.023331    -0.099809    1.957510
N     0.085026    -0.112492    3.113985
C     0.186661    -0.103549    4.548905
H     0.796570    -0.953280    4.865688
H     -0.815510    -0.177607    4.978051
H     0.658134    0.832571    4.858881
C     -0.008363    0.140445    -1.939464
N     0.033137    0.258346    -3.090885
C     0.106476    0.420634    -4.518256
H     -0.571485    -0.292658    -4.993263
H     1.134088    0.234428    -4.840895
H     -0.185395    1.443023    -4.771234
C     -0.050572    4.813346    0.290876
C     0.823688    4.059269    1.075196
C     0.808241    2.673534    0.968099
N     -0.031894    2.018200    0.131465
C     -0.880876    2.752467    -0.627115
C     -0.915796    4.140715    -0.573683
H     -0.057960    5.897459    0.352552
H     1.515717    4.532692    1.764037
H     1.485598    2.066828    1.555045
H     -1.552214    2.208522    -1.278933
H     -1.615343    4.680275    -1.203645
C     4.809556    -0.088230    -0.087312
C     4.095351    -0.962783    0.733244
C     2.707039    -0.904775    0.742373
N     2.012394    -0.020168    -0.012195
C     2.708250    0.835594    -0.798507
C     4.096016    0.825717    -0.864786
H     5.894452    -0.117344    -0.120341
H     4.598967    -1.690229    1.361051
H     2.130710    -1.587427    1.353556
H     2.134296    1.548904    -1.375030
H     4.602468    1.528335    -1.518541
C     -0.077767    -4.824411    -0.277237
C     -0.866689    -4.150409    0.656464
C     -0.818951    -2.762867    0.710678
N     -0.028720    -2.031016    -0.110916
C     0.741095    -2.687519    -1.010988
C     0.739474    -4.072901    -1.123083
H     -0.099832    -5.907930    -0.343549
H     -1.515871    -4.687248    1.340532
H     -1.432906    -2.218301    1.416164
H     1.374580    -2.085279    -1.648628
H     1.374332    -4.547733    -1.863931
C     -4.840719    -0.103029    0.024309
C     -4.112152    -0.840290    -0.910662
C     -2.724083    -0.785607    -0.886152
N     -2.042877    -0.035740    0.012598
C     -2.751209    0.682012    0.916566
C     -4.140857    0.670599    0.951975
H     -5.926431    -0.130490    0.029228
H     -4.606943    -1.456675    -1.654018
H     -2.138765    -1.360596    -1.591427
H     -2.187050    1.281188    1.619539
H     -4.658869    1.262739    1.699458
