24

Co     -0.016697    0.009566    0.023133
N     -0.195003    2.152195    0.475940
H     -1.031630    2.415886    1.009345
H     0.592377    2.579086    0.978300
H     -0.266465    2.670973    -0.408589
N     2.121798    0.253435    -0.433281
H     2.373969    1.210633    -0.707152
H     2.743322    0.036581    0.355798
H     2.457793    -0.348691    -1.195171
N     0.227581    -2.160539    -0.195441
H     1.139327    -2.533129    0.094995
H     -0.471542    -2.744857    0.278384
H     0.146706    -2.398909    -1.192440
N     -2.188537    -0.270151    0.184842
H     -2.542856    -1.042958    -0.392339
H     -2.505381    -0.492655    1.136737
H     -2.744337    0.550102    -0.087681
N     0.304516    -0.235154    2.170643
H     -0.454298    0.176764    2.727837
H     0.368317    -1.224687    2.438043
H     1.171780    0.213839    2.490899
O     -0.348432    0.323340    -2.011762
H     -1.213457    0.369590    -2.470083
H     0.330513    0.490496    -2.698152
