53

Co     -0.096209    -0.021735    -0.111557
C     -0.444548    -0.231946    2.222864
O     -0.650487    -0.297875    3.331203
C     0.206928    0.166437    -2.275010
N     0.331608    0.234919    -3.428483
C     0.479361    0.311821    -4.854989
H     0.033503    -0.577828    -5.306840
H     1.542757    0.361403    -5.100806
H     -0.028864    1.208589    -5.217613
C     0.434779    4.943138    0.721890
C     1.075385    4.026366    1.555997
C     0.925054    2.651894    1.303552
N     0.183015    2.163215    0.287478
C     -0.426016    3.057860    -0.518091
C     -0.328613    4.448313    -0.336281
H     0.527579    6.011836    0.889950
H     1.681865    4.351625    2.395508
H     1.414878    1.925379    1.943681
H     -1.008414    2.655270    -1.340730
H     -0.847377    5.113964    -1.019199
C     4.946045    -0.459453    0.580539
C     4.067113    -1.323792    1.233438
C     2.681441    -1.180404    1.022181
N     2.148646    -0.241670    0.214795
C     3.006916    0.588568    -0.411907
C     4.404685    0.514963    -0.257963
H     6.019687    -0.541994    0.720480
H     4.428219    -2.100113    1.900844
H     1.986084    -1.844377    1.525847
H     2.570414    1.334416    -1.067886
H     5.038121    1.214682    -0.794425
C     -0.364640    -5.031726    -0.491745
C     -1.258806    -4.338546    0.325535
C     -1.165033    -2.940251    0.404457
N     -0.245790    -2.223065    -0.275304
C     0.613548    -2.902358    -1.063877
C     0.588579    -4.298425    -1.199761
H     -0.408563    -6.113323    -0.575414
H     -2.018935    -4.858213    0.900172
H     -1.851216    -2.383561    1.034920
H     1.341850    -2.309140    -1.606119
H     1.308240    -4.785878    -1.849693
C     -5.090260    0.424255    -0.504267
C     -4.386284    1.190602    0.425272
C     -2.991748    1.052238    0.506453
N     -2.285034    0.216872    -0.284794
C     -2.973475    -0.510380    -1.190169
C     -4.368888    -0.443048    -1.326335
H     -6.170258    0.502317    -0.586716
H     -4.895504    1.883286    1.087548
H     -2.427874    1.628466    1.232578
H     -2.391804    -1.164948    -1.830269
H     -4.865053    -1.062158    -2.067305
