57

Co     0.039189    0.022541    -0.001503
C     0.077723    -0.126547    2.187864
N     0.111979    -0.156348    3.347091
C     0.155343    -0.185513    4.782661
H     0.676557    -1.091198    5.102548
H     -0.867341    -0.187380    5.167492
H     0.687611    0.700934    5.136309
C     0.051987    0.265500    -2.183984
N     0.078791    0.405694    -3.335389
C     0.116478    0.584237    -4.760582
H     -0.601371    -0.097512    -5.222858
H     1.125533    0.363599    -5.117815
H     -0.145146    1.619604    -4.993232
C     -0.098544    4.940499    0.443501
C     0.801456    4.179696    1.194625
C     0.775601    2.795752    1.078173
N     -0.094713    2.159313    0.259511
C     -0.972387    2.894793    -0.462111
C     -0.999992    4.282454    -0.398076
H     -0.099623    6.024123    0.517159
H     1.514165    4.648860    1.864789
H     1.463317    2.175109    1.640204
H     -1.662623    2.346905    -1.092449
H     -1.719066    4.833026    -0.996137
C     4.986346    -0.112057    -0.046795
C     4.258090    -1.005564    0.744347
C     2.870254    -0.959708    0.708678
N     2.195081    -0.075935    -0.063056
C     2.902011    0.788939    -0.828766
C     4.291422    0.802002    -0.843554
H     6.072433    -0.130726    -0.045906
H     4.755324    -1.733770    1.376764
H     2.274041    -1.645075    1.300013
H     2.332886    1.485210    -1.434326
H     4.814938    1.515523    -1.471873
C     -0.153425    -4.909456    -0.396652
C     -0.914884    -4.245170    0.569238
C     -0.820397    -2.862807    0.668067
N     -0.012038    -2.137575    -0.139854
C     0.725816    -2.781033    -1.073447
C     0.676261    -4.159720    -1.234933
H     -0.203998    -5.989841    -0.493217
H     -1.577105    -4.787789    1.236319
H     -1.404447    -2.312296    1.396414
H     1.370500    -2.170455    -1.694377
H     1.280547    -4.630981    -2.003233
C     -4.928566    -0.189598    -0.035263
C     -4.182937    -0.775008    -1.061496
C     -2.797163    -0.675510    -1.028702
N     -2.141708    -0.029459    -0.037517
C     -2.864953    0.537630    0.954966
C     -4.252833    0.475601    0.991304
H     -6.012881    -0.249418    -0.033600
H     -4.663926    -1.307756    -1.875144
H     -2.188111    -1.131540    -1.800321
H     -2.312099    1.058375    1.728620
H     -4.789373    0.945744    1.809221
