17

Co     -0.000063    -0.000046    -0.000055
C     0.290913    1.920398    -0.285433
O     0.456656    3.016102    -0.457906
C     1.908587    -0.332555    -0.317728
O     2.998707    -0.523404    -0.499796
C     -0.290982    -1.920493    0.285531
O     -0.456841    -3.016122    0.458401
C     -1.908698    0.332130    0.317508
O     -2.998850    0.522858    0.499516
N     0.366686    0.188385    2.017087
H     -0.415950    -0.135746    2.604858
H     0.539191    1.164478    2.298759
H     1.190803    -0.343495    2.335077
N     -0.366531    -0.188226    -2.017049
H     -1.191499    0.342589    -2.334621
H     -0.537640    -1.164394    -2.299357
H     0.415433    0.137580    -2.604808
