31

Co     -0.301010    -0.002179    0.008108
N     -0.035127    1.867745    -0.300560
C     0.047472    3.007195    -0.494776
C     0.157916    4.434704    -0.733828
H     1.214739    4.723774    -0.789296
H     -0.336481    4.689677    -1.679707
H     -0.323630    4.984714    0.084466
N     1.581070    -0.316668    -0.269291
C     2.713315    -0.513212    -0.429861
C     4.129455    -0.760102    -0.631477
H     4.668589    -0.609705    0.312613
H     4.282447    -1.792238    -0.971447
H     4.524759    -0.067378    -1.385179
N     -0.580537    -1.881475    0.332677
C     -0.766320    -3.006378    0.549489
C     -0.998392    -4.411895    0.827850
H     -0.102028    -4.854997    1.280025
H     -1.843888    -4.517706    1.519505
H     -1.229698    -4.942322    -0.104758
N     -2.165986    0.318025    0.280108
C     -3.272994    0.595085    0.478177
C     -4.660032    0.942051    0.729670
H     -5.058238    1.513973    -0.117543
H     -5.256306    0.031089    0.861555
H     -4.725741    1.549923    1.640733
O     -0.066064    0.350995    1.904809
H     -0.135072    -0.445533    2.470547
H     0.779950    0.788147    2.133532
O     -0.675449    -0.203253    -1.887012
H     -1.127050    -1.038867    -2.125638
H     0.114309    -0.135662    -2.462754
