22

Co     -0.084771    0.122413    -0.045580
O     -0.404935    2.023601    -0.232956
H     0.418420    2.559688    -0.289400
H     -1.029891    2.385586    -0.898809
O     1.779969    0.555430    0.206776
H     2.531185    0.259979    -0.351742
H     2.066700    0.559021    1.147947
O     0.167161    -1.750678    0.376519
H     0.996638    -2.239948    0.184875
H     -0.587782    -2.349440    0.183381
O     -1.974069    -0.291080    -0.190096
H     -2.597016    0.066728    0.480692
H     -2.452526    -0.326771    -1.046020
O     -0.240938    0.431628    1.900724
H     -0.616961    1.248631    2.291560
H     -0.369811    -0.312668    2.525639
C     0.163875    -0.162533    -1.936173
N     0.291724    -0.344497    -3.068648
C     0.455644    -0.569294    -4.488909
H     -0.110081    -1.466093    -4.762612
H     1.523178    -0.708598    -4.688341
H     0.074288    0.308892    -5.020146
