25

Co     0.002661    0.009904    -0.019697
P     -0.304132    2.316451    0.345027
H     -1.426785    2.902432    -0.277789
H     -0.474899    2.723876    1.686163
S     1.310455    3.458694    -0.454225
S     2.852663    2.341583    0.466209
P     2.291899    0.453323    -0.352954
H     3.195150    -0.427215    0.279962
H     2.755647    0.425333    -1.686719
P     0.397109    -2.294007    -0.345083
H     -0.751986    -3.059770    -0.640446
H     1.255830    -2.664279    -1.402463
S     1.364773    -3.198203    1.328192
S     0.089904    -2.398446    2.816059
P     0.366316    -0.354062    2.277227
H     1.633719    0.050746    2.752709
H     -0.492476    0.308555    3.179998
P     -2.308909    -0.351030    0.277997
H     -2.941853    0.329717    1.340200
H     -2.666708    -1.688857    0.552929
S     -3.457283    0.304519    -1.396690
S     -2.276231    -0.619301    -2.889896
P     -0.428533    0.277875    -2.316469
H     -0.430084    1.614292    -2.775471
H     0.478280    -0.322337    -3.215804
