17

Co     -0.001943    -0.000406    -0.229199
C     -0.012936    2.239032    0.041544
O     -0.018837    3.356986    0.140538
C     2.237257    0.010458    0.046564
O     3.354834    0.016268    0.149781
C     0.008815    -2.239733    0.041408
O     0.014131    -3.357694    0.140339
C     -2.243198    -0.011108    0.032156
O     -3.361664    -0.016837    0.125212
C     -0.009368    -0.000154    2.080837
O     -0.014971    -0.000103    3.203421
C     0.006363    0.000347    -3.308230
N     0.002818    0.000177    -2.119410
C     0.008776    0.000655    -4.723732
H     1.050311    -0.030670    -5.109644
H     -0.484324    0.918158    -5.110892
H     -0.538694    -0.885284    -5.111327
