16

Cr     0.032687    0.020570    0.035036
S     -0.491390    2.851268    -0.686363
H     0.220953    3.287790    -1.747095
H     0.349534    3.379998    0.224752
S     2.597356    0.403692    -0.328941
H     3.027423    -0.551743    -1.183865
H     3.059430    -0.228825    0.768527
S     0.518394    -2.824538    0.466602
H     -0.026221    -2.865135    1.699510
H     -0.426503    -3.614199    -0.087197
S     -2.531402    -0.340240    0.443348
H     -2.817604    0.808744    1.088007
H     -3.192704    0.011467    -0.683170
I     0.303911    0.644937    2.604167
C     -0.236976    -0.389008    -2.073689
O     -0.386885    -0.594784    -3.176637
