18

Cr     -0.018897    0.016666    0.181285
S     0.406154    2.876938    -0.261659
H     -0.769501    3.504943    -0.475423
H     0.903006    3.153398    -1.485865
S     2.527609    -0.367997    0.623964
H     3.017458    -0.986106    -0.472781
H     3.141327    0.809774    0.372483
S     -0.492801    -2.837274    0.628113
H     0.537339    -3.439430    1.259557
H     -0.341290    -3.539846    -0.514476
S     -2.580435    0.407488    -0.151805
H     -3.131903    -0.659587    0.468531
H     -2.868796    -0.033168    -1.396246
S     -0.451453    0.450906    2.683823
H     0.450661    -0.331571    3.317003
H     0.215611    1.603294    2.919074
C     0.273666    -0.319412    -1.956006
O     0.437809    -0.483022    -3.059757
