55
03/24/2023 16:57, XYZ structure generated by mol3D Class, molSimplify
Cr     0.000008    -0.000493    -0.000594
N     0.347583    2.104785    0.319718
C     -0.087658    4.301528    0.607634
N     1.274640    4.087846    0.603101
C     1.497066    2.764598    0.431514
C     -0.649033    3.066498    0.429589
H     2.481596    2.327403    0.384231
H     1.988583    4.797819    0.707581
H     -1.693603    2.803687    0.378459
H     -0.518918    5.283031    0.731407
N     2.137296    -0.263540    0.322062
C     4.366323    -0.397289    -0.017522
N     4.065364    -0.779127    1.270777
C     2.724135    -0.685395    1.437532
C     3.165335    -0.082012    -0.594531
H     2.225242    -0.932727    2.361178
H     4.728274    -1.081728    1.972943
H     2.976312    0.263082    -1.598593
H     5.376300    -0.386047    -0.397694
N     -0.347530    -2.105830    -0.320758
C     0.087528    -4.302643    -0.608479
N     -1.274736    -4.088757    -0.604516
C     -1.497059    -2.765467    -0.433131
C     0.648997    -3.067674    -0.430310
H     -2.481548    -2.328139    -0.386252
H     -1.988735    -4.798637    -0.709234
H     1.693584    -2.805011    -0.378789
H     0.518696    -5.284220    -0.731987
N     -2.137354    0.262630    -0.323169
C     -4.366380    0.396853    0.016256
N     -4.065236    0.778386    -1.272092
C     -2.724020    0.684400    -1.438765
C     -3.165486    0.081442    0.593388
H     -2.225018    0.931486    -2.362418
H     -4.728038    1.080984    -1.974362
H     -2.976584    -0.263520    1.597518
H     -5.376389    0.385874    0.396349
N     -0.344654    -0.252804    2.131929
C     -0.797951    -1.182502    4.137492
N     -0.615868    0.176711    4.279579
C     -0.342328    0.697702    3.062377
C     -0.630941    -1.435202    2.803303
H     -0.167356    1.747718    2.891074
H     -0.686642    0.700226    5.143100
H     -0.686732    -2.381824    2.290864
H     -1.022077    -1.827019    4.973606
N     0.344622    0.252068    -2.133087
C     0.797661    1.181702    -4.138663
N     0.616338    -0.177621    -4.280672
C     0.342998    -0.698566    -3.063399
C     0.630403    1.434538    -2.804528
H     0.168598    -1.748657    -2.891953
H     0.687492    -0.701201    -5.144123
H     0.685648    2.381259    -2.292207
H     1.021508    1.826239    -4.974835
