52

Cr     -0.001166    0.048673    0.043984
C     0.094002    -0.005133    2.197076
N     0.134517    -0.038536    3.355398
C     0.177356    -0.078125    4.786964
H     0.843748    -0.885969    5.099187
H     -0.831869    -0.260596    5.164389
H     0.547475    0.881361    5.156308
O     0.013453    2.184666    0.110533
C     1.142813    3.010170    0.266674
C     0.756062    4.301429    0.242746
C     -0.675626    4.323089    0.070009
C     -1.095196    3.043760    -0.003742
H     2.082459    2.492985    0.360610
H     1.409324    5.158499    0.333205
H     -2.045358    2.551221    -0.125834
H     -1.305841    5.199993    0.011034
O     2.454083    0.058598    -0.171736
C     3.421741    -0.176326    0.803223
C     4.642199    -0.266310    0.227823
C     4.455192    -0.079324    -1.187708
C     3.132547    0.114950    -1.389321
H     3.064464    -0.247949    1.818253
H     5.578163    -0.441142    0.740037
H     2.518478    0.316549    -2.252186
H     5.222984    -0.086698    -1.949080
O     0.018523    -2.094921    0.049910
C     -1.041658    -2.941312    0.420999
C     -0.603304    -4.216000    0.448941
C     0.792900    -4.203183    0.087222
C     1.141035    -2.921169    -0.143637
H     -1.984788    -2.449644    0.591956
H     -1.199379    -5.084290    0.693761
H     2.043469    -2.413137    -0.439893
H     1.447319    -5.060497    0.009029
O     -2.485928    0.051381    0.017769
C     -3.335448    0.290511    1.098743
C     -4.620267    0.082189    0.732884
C     -4.603440    -0.310118    -0.652442
C     -3.310706    -0.314556    -1.046623
H     -2.854403    0.599068    2.013202
H     -5.491456    0.193957    1.363725
H     -2.805869    -0.526108    -1.975407
H     -5.458279    -0.553776    -1.268293
O     -0.110604    0.071800    -2.092332
C     -0.234468    -1.043473    -2.940151
C     -0.237022    -0.629194    -4.223721
C     -0.113790    0.807541    -4.215451
C     -0.042729    1.200756    -2.927393
H     -0.289097    -1.994649    -2.438024
H     -0.314807    -1.265966    -5.094331
H     0.043960    2.145417    -2.417698
H     -0.086768    1.459686    -5.077671
