24

Cr     0.001023    0.001148    -0.003558
C     0.043121    2.671400    0.022187
O     0.099893    3.796967    0.074532
C     2.261715    0.053943    0.024012
O     3.386856    0.090379    0.048497
C     -0.043369    -2.669291    0.022539
O     -0.101427    -3.794707    0.076024
C     -2.260238    -0.051637    0.023719
O     -3.385378    -0.088308    0.048606
C     0.000387    0.000421    2.125667
N     -0.000695    -0.001127    3.283814
C     -0.001274    -0.002801    4.718337
H     0.616883    -0.834650    5.066225
H     -1.030683    -0.124461    5.065519
H     0.408386    0.948106    5.069417
O     0.001107    0.001314    -2.077363
C     0.783747    -0.816270    -2.927240
C     0.500005    -0.520494    -4.209137
C     -0.499970    0.520354    -4.208991
C     -0.782315    0.818099    -2.927228
H     1.442437    -1.515336    -2.436558
H     0.948248    -0.982852    -5.078429
H     -1.440263    1.518180    -2.436826
H     -0.948923    0.981423    -5.078373
