18

Cr     0.041739    0.066944    0.115917
S     0.466689    2.525608    0.481883
H     -0.579022    2.940735    1.229879
H     0.097148    3.216273    -0.619183
S     2.503127    -0.288598    0.534140
H     2.761341    -1.604319    0.685156
H     3.163958    -0.162491    -0.636870
S     -0.415472    -2.420347    -0.135536
H     0.221296    -3.099188    0.843506
H     0.384118    -2.856307    -1.132726
S     -2.411245    0.424822    -0.293938
H     -3.050030    -0.763864    -0.228551
H     -2.633670    0.613773    -1.612832
S     -0.349272    -0.389356    2.618408
H     -1.509645    0.200116    2.982859
H     0.428937    0.476173    3.306313
C     0.352599    0.445011    -1.766301
O     0.527619    0.677120    -2.867324
