29

Cr     0.000096    -0.000052    0.003488
N     -0.304990    2.126888    0.382081
H     -1.302646    2.343064    0.426961
H     0.082214    2.463298    1.266222
H     0.066409    2.736592    -0.350577
N     2.128442    0.196163    0.440444
H     2.391442    1.168713    0.617393
H     2.393436    -0.307562    1.289447
H     2.762728    -0.118989    -0.297173
N     0.305000    -2.126958    -0.374618
H     1.302643    -2.343652    -0.417410
H     -0.068083    -2.736244    0.357541
H     -0.080651    -2.463511    -1.259380
N     -2.128061    -0.194893    -0.435295
H     -2.389939    -1.165655    -0.623398
H     -2.762450    0.111018    0.306105
H     -2.393882    0.318079    -1.278472
C     -0.469229    -0.481036    3.166613
N     -0.276198    -0.285073    2.037274
C     -0.710141    -0.722602    4.583591
H     -0.680254    0.223775    5.134280
H     0.054910    -1.393710    4.988155
H     -1.695096    -1.181137    4.722839
C     0.469226    0.480332    -3.159817
N     0.276290    0.284823    -2.030386
C     0.709774    0.721369    -4.576945
H     0.679572    -0.225200    -5.127285
H     1.694743    1.179715    -4.716670
H     -0.055338    1.392400    -4.981518
