27

Cr     0.000054    0.000028    -0.025592
C     0.127763    2.271904    -0.102875
O     0.207017    3.392561    -0.173319
C     2.687209    0.057288    0.174588
O     3.799253    0.154680    0.336873
C     -0.127703    -2.271729    -0.103097
O     -0.207112    -3.392513    -0.173361
C     -2.687065    -0.057593    0.175251
O     -3.799268    -0.154393    0.336371
O     0.000144    -0.000004    2.031120
C     -0.635513    0.936854    2.881965
C     -0.403366    0.598301    4.163632
C     0.403063    -0.598602    4.163589
C     0.635372    -0.937012    2.881957
H     -1.178631    1.728757    2.390846
H     -0.758684    1.135914    5.032697
H     1.178220    -1.729032    2.390862
H     0.758504    -1.136092    5.032617
O     0.000077    -0.000150    -2.079297
C     -1.031785    0.470218    -2.932050
C     -0.656812    0.299250    -4.212513
C     0.657130    -0.298879    -4.212487
C     1.031959    -0.470149    -2.932052
H     -1.906982    0.864231    -2.440664
H     -1.243322    0.564100    -5.082208
H     1.907084    -0.864167    -2.440707
H     1.243520    -0.563882    -5.082144
