22

Cr     -0.110313    0.075079    -0.008755
O     -0.527313    2.125628    -0.131313
H     0.211981    2.758735    -0.177679
H     -1.186104    2.412041    -0.789155
O     1.874468    0.551131    0.303270
H     2.639162    0.169066    -0.161231
H     2.151787    0.772370    1.210750
O     0.076046    -1.936068    0.399209
H     0.697951    -2.332782    1.035241
H     -0.078495    -2.605200    -0.291606
O     -2.163612    -0.081603    -0.424236
H     -2.843656    -0.121381    0.270583
H     -2.503419    -0.592540    -1.178919
O     -0.241122    0.529129    2.075932
H     -0.704150    1.360317    2.285061
H     -0.460640    -0.096866    2.787947
C     0.356167    -0.399670    -3.155133
N     0.150424    -0.279853    -2.017389
C     0.613801    -0.548304    -4.580410
H     1.548001    -0.040315    -4.844519
H     -0.206691    -0.108912    -5.158128
H     0.702567    -1.609981    -4.836057
