31

Cr     0.007110    0.129083    -0.102902
S     0.500283    2.519855    0.215702
H     0.480076    3.068816    -1.020319
C     2.336649    2.516252    0.459494
H     2.479814    2.197880    1.495936
H     2.688210    3.549288    0.380818
C     3.095188    1.631068    -0.521025
H     3.017603    2.000916    -1.545944
H     4.151481    1.586131    -0.241452
S     2.434604    -0.112428    -0.485888
H     2.690067    -0.455496    -1.766289
S     -0.401772    -2.389050    -0.007862
H     0.442580    -2.985674    -0.874920
C     0.441539    -2.843350    1.582872
H     0.179222    -3.879413    1.813694
H     1.523780    -2.769569    1.452679
C     -0.061347    -1.934123    2.695053
H     0.403850    -2.214736    3.643177
H     -1.147710    -1.980974    2.802348
S     0.422287    -0.163855    2.353232
H     -0.560210    0.449530    3.046620
S     -2.411621    0.543767    0.192404
H     -2.613821    1.878595    0.247737
C     -3.185946    0.195730    -1.451741
H     -4.166920    0.678868    -1.468482
H     -3.349978    -0.885941    -1.462137
C     -2.332502    0.657601    -2.622518
H     -2.781141    0.334442    -3.566393
H     -2.215445    1.743386    -2.636246
S     -0.650157    -0.129289    -2.502272
H     0.034248    0.799699    -3.204711
