73
03/24/2023 16:57, XYZ structure generated by mol3D Class, molSimplify
Cr     -0.086838    -0.107155    -0.000069
O     -0.462143    1.931113    0.181485
C     -0.816242    2.715258    1.105171
N     -1.956437    3.451460    1.100942
C     -1.940812    4.453482    2.172861
C     -0.885743    3.850457    3.132631
N     -0.111626    2.997355    2.223858
H     -2.921822    4.555658    2.640338
H     -1.624595    5.432079    1.791172
H     -1.358951    3.253325    3.922350
H     -0.259220    4.616140    3.594330
H     -2.476192    3.572264    0.243176
H     0.635473    2.376346    2.529319
O     1.975788    0.350416    -0.073643
C     2.850952    -0.122828    -0.848461
N     4.159132    0.258977    -0.854506
C     4.858845    -0.334294    -2.002347
C     3.949692    -1.544835    -2.314062
N     2.662610    -1.089502    -1.777107
H     5.877283    -0.628619    -1.742908
H     4.893074    0.367174    -2.845208
H     4.297137    -2.447223    -1.794551
H     3.889215    -1.756222    -3.383665
H     4.406160    1.173594    -0.500449
H     1.844189    -1.685581    -1.680468
O     0.269329    -2.116576    -0.452066
C     -0.239388    -3.146801    0.070569
N     -1.003540    -3.199259    1.186166
C     -1.583723    -4.534559    1.358983
C     -0.623956    -5.401417    0.511200
N     -0.098366    -4.403771    -0.427740
H     -2.607473    -4.572969    0.964782
H     -1.598804    -4.834573    2.408742
H     -1.139804    -6.209410    -0.010792
H     0.179891    -5.829021    1.123531
H     -1.429385    -2.344951    1.527773
H     0.643827    -4.609608    -1.081346
O     -2.088020    -0.496634    0.452027
C     -3.042177    -0.623221    -0.357673
N     -4.358013    -0.555835    -0.014748
C     -5.208700    -0.969475    -1.136222
C     -4.256481    -0.742094    -2.335025
N     -2.943353    -0.847179    -1.691391
H     -6.113993    -0.362631    -1.199119
H     -5.495532    -2.025061    -1.047756
H     -4.402208    0.252069    -2.777500
H     -4.383035    -1.496009    -3.114611
H     -4.630821    -0.671498    0.951444
H     -2.061734    -0.627541    -2.149451
O     0.042714    -0.507009    2.076600
C     0.897976    -0.238436    2.943332
N     1.926358    0.678572    2.815232
C     2.865409    0.509845    3.941240
C     1.960778    -0.125540    5.020406
N     0.948318    -0.776560    4.185615
H     3.285424    1.466213    4.257709
H     3.684820    -0.165627    3.667381
H     1.508215    0.633809    5.670500
H     2.494555    -0.847641    5.641263
H     2.284888    0.769126    1.864318
H     0.151605    -1.272869    4.560194
O     -0.207248    0.058408    -2.116849
C     0.094855    1.030119    -2.858037
N     -0.070104    1.034710    -4.210565
C     0.564248    2.217413    -4.805191
C     0.621984    3.169873    -3.588360
N     0.614431    2.221271    -2.467709
H     -0.030221    2.621373    -5.626674
H     1.569188    1.980731    -5.176530
H     -0.257273    3.826132    -3.555171
H     1.521358    3.789050    -3.585483
H     -0.119171    0.151904    -4.701695
H     0.463452    2.504643    -1.502941
