21

Cr     -0.000055    -0.000006    -0.002070
C     -0.000014    2.446739    -0.002292
O     0.000007    3.574236    -0.002433
C     2.446861    -0.000053    -0.001689
O     3.574360    -0.000076    -0.001325
C     -0.000099    -2.446752    -0.002200
O     -0.000120    -3.574248    -0.002275
C     -2.446960    0.000041    -0.002718
O     -3.574457    0.000065    -0.003232
C     0.001595    -0.000107    3.202751
N     0.000333    -0.000022    2.041931
C     0.004074    -0.000269    4.653142
H     -1.026636    -0.036111    5.025274
H     0.489521    0.910941    5.022177
H     0.551626    -0.875710    5.021793
C     -0.001566    0.000110    -3.206874
N     -0.000364    0.000019    -2.046052
C     -0.003969    0.000280    -4.657264
H     1.026761    0.036126    -5.029342
H     -0.551502    0.875724    -5.025940
H     -0.489395    -0.910928    -5.026332
