27

Cr     -0.061391    0.083274    -0.031664
P     -0.353038    2.549952    -0.503161
H     -1.610685    3.145664    -0.263129
H     0.464434    3.513626    0.124306
H     -0.180092    2.935739    -1.848249
P     2.376283    0.575994    0.327426
H     2.919995    1.855175    0.082969
H     2.974587    0.312496    1.577746
H     3.239444    -0.185241    -0.490285
P     0.144709    -2.385828    0.442544
H     1.337109    -2.902698    0.994075
H     -0.780382    -2.990063    1.319406
H     0.015663    -3.258489    -0.658746
P     -2.515748    -0.380443    -0.431916
H     -3.094361    -1.641526    -0.173986
H     -3.453379    0.424947    0.250733
H     -2.972927    -0.183624    -1.751319
P     -0.408017    0.421664    2.470425
H     0.626729    0.956697    3.265874
H     -1.432652    1.332233    2.809520
H     -0.798752    -0.654089    3.295339
C     0.424595    -0.412387    -3.147600
N     0.216008    -0.202832    -2.022857
C     0.678103    -0.670286    -4.556570
H     0.725823    -1.749587    -4.738659
H     1.623681    -0.209030    -4.861738
H     -0.134448    -0.246249    -5.158205
