25
03/24/2023 16:57, XYZ structure generated by mol3D Class, molSimplify
Cr     -0.018336    -0.016075    0.000825
N     -0.257869    2.150270    0.382708
H     -1.227294    2.413745    0.575355
H     0.274393    2.498932    1.183966
H     0.016256    2.735347    -0.410486
N     2.160941    0.255863    -0.288842
H     2.440874    1.239743    -0.276995
H     2.735775    -0.192228    0.429284
H     2.506904    -0.100776    -1.183300
N     0.210092    -2.183077    -0.385448
H     1.178088    -2.449624    -0.581937
H     -0.065658    -2.772740    0.404068
H     -0.326692    -2.528210    -1.185518
N     -2.194655    -0.300245    0.293928
H     -2.457465    -1.288114    0.331736
H     -2.556880    0.096817    1.164636
H     -2.772390    0.098594    -0.450423
N     0.423528    -0.365643    2.525608
H     -0.385850    -0.169348    3.119417
H     0.679687    -1.326639    2.764957
H     1.174257    0.202225    2.925911
N     -0.340642    0.448548    -2.525729
H     -1.272972    0.792088    -2.769093
H     0.296243    1.139593    -2.929685
H     -0.220354    -0.378989    -3.114971
