33

Cr     0.006301    -0.004155    0.026998
C     0.551120    3.133592    -0.434903
N     0.368531    2.005757    -0.234009
C     0.783601    4.548752    -0.685752
H     0.682304    4.759048    -1.755868
H     1.796203    4.819113    -0.367460
H     0.061022    5.155613    -0.130491
C     3.152651    -0.475382    0.486461
N     2.025148    -0.290870    0.286955
C     4.569291    -0.702729    0.734645
H     5.114360    0.244887    0.669050
H     4.975949    -1.401886    -0.003288
H     4.708090    -1.120541    1.737616
C     -0.530502    -3.137550    0.505861
N     -0.350782    -2.010693    0.298624
C     -0.758475    -4.552762    0.760816
H     0.192149    -5.048983    0.983448
H     -1.202390    -5.022027    -0.123819
H     -1.436486    -4.679745    1.611081
C     -3.149154    0.452183    -0.398740
N     -2.017836    0.274239    -0.214472
C     -4.570411    0.672821    -0.625111
H     -5.152967    0.117144    0.117820
H     -4.851343    0.329272    -1.626120
H     -4.803555    1.738640    -0.531871
P     -0.402120    0.554500    2.449615
H     0.662295    1.018256    3.252076
H     -1.339242    1.573537    2.719931
H     -0.907658    -0.439346    3.315333
P     0.392123    -0.518649    -2.402508
H     1.710819    -0.493110    -2.903384
H     -0.021275    -1.763329    -2.922669
H     -0.215096    0.322854    -3.360310
