17

Cr     0.042815    -0.052375    0.254850
S     -0.413889    2.382222    0.625506
H     0.767843    2.984347    0.886434
H     -0.426686    2.777891    -0.666724
S     2.536747    -0.243313    0.685893
H     2.934101    -0.591998    -0.556627
H     2.996701    1.020868    0.566226
S     0.379776    -2.563488    -0.221781
H     -0.397198    -2.754129    -1.307614
H     -0.417463    -3.275011    0.605575
S     -2.485886    -0.319761    -0.161010
H     -3.188907    0.732574    0.314072
H     -2.508831    0.105135    -1.441689
S     -0.348915    -0.475682    2.725570
H     0.818621    -0.673371    3.373505
H     -0.665968    0.651311    3.397612
Cl     0.392452    0.288449    -1.974526
