19

Cr     -0.042458    -0.064168    0.058489
O     -0.404402    1.945183    0.211011
H     -0.790789    2.397032    0.983872
H     0.139164    2.606794    -0.255415
O     1.960190    0.332575    0.244757
H     2.373060    0.487439    1.114605
H     2.673150    0.045078    -0.354250
O     0.341398    -2.050393    -0.146298
H     -0.009830    -2.739100    0.448440
H     0.652335    -2.497555    -0.953629
O     -2.042046    -0.416404    -0.176671
H     -2.454791    -0.597066    -1.039420
H     -2.760956    -0.306098    0.471911
C     -0.336214    -0.250948    2.003409
O     -0.516055    -0.361359    3.120515
P     0.257037    0.276620    -2.515536
H     -0.899211    0.585315    -3.263930
H     0.783654    -0.737310    -3.345821
H     1.076769    1.344360    -2.940769
