22

Cr     0.110739    0.125396    -0.089364
O     0.446379    2.247489    -0.217456
H     1.134739    2.655550    -0.771246
H     -0.345459    2.806941    -0.310912
O     2.162359    -0.288047    -0.256240
H     2.640750    -0.403222    -1.095052
H     2.832809    -0.131302    0.431538
O     -0.132033    -1.942184    0.479728
H     0.517916    -2.603433    0.183963
H     -0.994755    -2.392323    0.495396
O     -1.902145    0.541656    0.245115
H     -2.204269    0.634667    1.165589
H     -2.680904    0.444968    -0.327971
O     0.241076    0.470387    2.014706
H     0.623779    1.286893    2.379608
H     0.429528    -0.252955    2.637286
C     -0.175532    -0.193151    -2.132745
N     -0.343043    -0.379335    -3.268768
C     -0.551247    -0.613256    -4.667965
H     -1.267904    -1.429645    -4.787735
H     0.401507    -0.882850    -5.130388
H     -0.944285    0.297761    -5.126085
