37

Cr     0.000904    0.000136    -0.001626
C     0.309943    2.118372    0.352116
N     0.475405    3.252745    0.537973
C     0.679092    4.649408    0.766147
H     1.606523    4.959566    0.278694
H     0.745991    4.829943    1.841731
H     -0.163222    5.205920    0.348127
C     2.118884    -0.351376    0.306899
N     3.252299    -0.539419    0.476315
C     4.647239    -0.771858    0.686928
H     5.000416    -1.507748    -0.039467
H     4.796975    -1.149348    1.701337
H     5.189568    0.167687    0.556520
C     -0.307574    -2.117816    -0.357283
N     -0.473766    -3.251714    -0.545337
C     -0.679170    -4.647754    -0.775828
H     -1.438490    -4.773627    -1.551371
H     -1.014143    -5.117514    0.152103
H     0.261551    -5.098100    -1.101627
C     -2.117975    0.349446    -0.306940
N     -3.252901    0.533243    -0.470798
C     -4.650281    0.758224    -0.672819
H     -4.907364    1.757243    -0.312498
H     -5.216873    0.006907    -0.117413
H     -4.874407    0.679375    -1.739371
C     -0.403115    -0.372936    2.484685
N     -0.585264    -0.537332    3.624524
C     -0.808885    -0.737925    5.022215
H     -0.338382    -1.674017    5.332703
H     -1.883781    -0.786052    5.212851
H     -0.373926    0.094662    5.580481
C     0.404217    0.375078    -2.487278
N     0.584541    0.544077    -3.626718
C     0.805472    0.749619    -5.024018
H     0.146390    0.090658    -5.594477
H     1.847517    0.522883    -5.262442
H     0.590136    1.791221    -5.274656
