27

Cr     0.083032    -0.070358    -0.032462
P     -0.329170    2.845810    0.488538
H     -1.559912    3.331425    0.988442
H     0.514140    3.558434    1.372673
H     -0.221906    3.731081    -0.608802
P     2.672847    0.329433    -0.464920
H     3.153691    1.652834    -0.547432
H     3.608948    -0.199682    0.447900
H     3.207997    -0.186829    -1.663016
P     0.532096    -2.993413    -0.510421
H     1.777947    -3.606130    -0.239808
H     -0.282687    -3.966351    0.114132
H     0.387669    -3.464357    -1.835761
P     -2.518896    -0.487689    0.293465
H     -3.079055    -1.644838    -0.285972
H     -3.058187    -0.597803    1.592334
H     -3.393568    0.484296    -0.234090
P     0.477771    -0.433311    2.523137
H     1.762142    -0.195204    3.053497
H     -0.291162    0.339085    3.417493
H     0.238811    -1.717745    3.053217
C     -0.267521    0.240512    -2.116934
N     -0.456208    0.409179    -3.249678
C     -0.688084    0.617027    -4.648999
H     -1.345624    -0.173431    -5.019312
H     0.269805    0.584009    -5.174029
H     -1.158684    1.593457    -4.788248
