40

Cr     0.000151    0.000279    0.231797
C     0.001424    2.152896    0.083969
N     0.003680    3.312876    0.039524
C     0.011662    4.742162    -0.006438
H     0.846151    5.074254    -0.628802
H     0.126250    5.128686    1.009272
H     -0.932104    5.091281    -0.432557
C     2.152384    0.003208    0.083544
N     3.312343    0.005081    0.038219
C     4.741588    0.009308    -0.008074
H     5.081304    -0.824899    -0.626780
H     5.129319    -0.098867    1.007885
H     5.081828    0.954027    -0.439004
C     -0.001491    -2.152393    0.084547
N     -0.003849    -3.312381    0.040008
C     -0.011966    -4.741662    -0.006218
H     -0.846415    -5.073529    -0.628758
H     -0.126783    -5.128365    1.009399
H     0.931864    -5.090765    -0.432218
C     -2.152127    -0.002509    0.085922
N     -3.312032    -0.004640    0.040158
C     -4.741182    -0.010055    -0.009986
H     -5.066207    -0.617704    -0.858028
H     -5.097249    1.016234    -0.128670
H     -5.127270    -0.431263    0.921517
C     0.002207    0.001460    2.637365
N     0.001670    0.001113    3.801658
C     -0.000098    -0.000548    5.231529
H     0.607063    -0.835303    5.590122
H     -1.026917    -0.110316    5.588743
H     0.418090    0.942266    5.592475
O     -0.000532    -0.000043    -2.450832
C     0.762445    -0.799985    -3.280293
C     0.495424    -0.520265    -4.578944
C     -0.496104    0.520346    -4.578987
C     -0.763425    0.799949    -3.280365
H     1.422000    -1.494518    -2.784204
H     0.941784    -0.989663    -5.444337
H     -1.423326    1.494215    -2.784346
H     -0.942281    0.989832    -5.444426
