13

Cr     0.011653    0.001696    0.016920
C     0.117752    1.988667    -0.081491
S     0.175843    3.508690    -0.133733
C     1.998013    0.098522    0.132520
S     3.517827    0.150143    0.198389
C     -0.089691    -1.987365    0.107212
S     -0.144939    -3.507607    0.152912
C     -1.975855    -0.091452    -0.095397
S     -3.495844    -0.139468    -0.158300
C     0.098078    -0.105553    2.004610
S     0.140990    -0.164657    3.524849
C     -0.069061    0.100134    -1.973086
S     -0.108461    0.152039    -3.493575
