25

Cr     0.098572    -0.036823    0.009606
O     0.825722    1.890082    -0.322820
H     0.298905    2.583954    -0.757701
P     2.492251    2.452348    -0.073959
H     2.541615    1.938914    1.250877
P     3.417532    0.642524    -1.030367
H     4.584247    0.757939    -0.214985
O     2.477120    -0.466584    -0.082680
H     2.739054    -1.386102    -0.275606
O     -0.395431    -1.956094    0.593401
H     -0.297660    -2.727027    0.004024
P     -1.296597    -2.393771    2.052809
H     -2.404138    -1.544157    1.781100
P     -0.293177    -0.878168    3.349274
H     0.991315    -1.457423    3.171785
O     -0.095285    0.331159    2.081575
H     -0.247200    1.229755    2.422813
O     -2.245364    0.704448    -0.440193
H     -2.801250    1.241014    0.153043
P     -2.733672    0.889816    -2.101446
H     -4.041510    0.318074    -2.039172
P     -1.740709    -1.095107    -2.550867
H     -1.562891    -0.897615    -3.947778
O     -0.143655    -0.533244    -2.038466
H     0.315397    0.015649    -2.701185
