32

Cr     -0.052137    0.064110    0.332050
C     -0.365267    2.177087    0.636061
N     -0.558567    3.324456    0.621602
C     -0.809353    4.720834    0.497776
H     0.136802    5.264405    0.559164
H     -1.470350    5.046488    1.304846
H     -1.281100    4.913291    -0.469408
C     2.046151    0.419628    -0.025258
N     3.129408    0.631125    -0.393861
C     4.415234    0.900877    -0.942996
H     4.324060    1.007749    -2.027153
H     5.091582    0.075132    -0.708136
H     4.806995    1.826017    -0.512730
C     0.247015    -2.036697    -0.063254
N     0.378384    -3.130911    -0.436472
C     0.520817    -4.441620    -0.974897
H     -0.388452    -4.705021    -1.521182
H     0.685145    -5.155638    -0.164091
H     1.372891    -4.457547    -1.659204
C     -2.167901    -0.276633    0.592973
N     -3.321132    -0.427719    0.558370
C     -4.728420    -0.592589    0.414514
H     -5.245892    0.101038    1.081973
H     -5.002154    -1.618886    0.671854
H     -5.006611    -0.385598    -0.622234
C     0.374539    -0.325978    2.930015
N     0.559781    -0.486479    4.072858
C     0.786296    -0.682041    5.466549
H     1.564687    -1.436326    5.607714
H     -0.137739    -1.019679    5.942973
H     1.106087    0.259605    5.920243
Cl     -0.451087    0.444557    -2.106173
