29

Cr     -0.000829    0.002466    -0.000526
N     -0.233286    2.159348    0.384368
H     -1.201684    2.419690    0.583999
H     0.306081    2.496845    1.185357
H     0.036302    2.739290    -0.413908
N     2.167253    0.278891    -0.286865
H     2.437119    1.265085    -0.288852
H     2.734146    -0.155808    0.445272
H     2.511229    -0.088557    -1.177303
N     0.232498    -2.155025    -0.382050
H     1.202645    -2.416389    -0.571508
H     -0.045957    -2.734442    0.413553
H     -0.298959    -2.492308    -1.188419
N     -2.169230    -0.273285    0.282908
H     -2.442597    -1.258456    0.269616
H     -2.510450    0.081150    1.179673
H     -2.736013    0.174720    -0.441281
C     0.383605    -0.405785    2.522343
N     0.553371    -0.586501    3.661258
C     0.762249    -0.810094    5.061336
H     1.521099    -1.585523    5.190525
H     -0.177527    -1.131834    5.516488
H     1.099674    0.119521    5.525912
C     -0.384709    0.409035    -2.523478
N     -0.553965    0.584887    -3.663224
C     -0.761966    0.802005    -5.064391
H     -1.404425    0.010552    -5.457748
H     0.203091    0.784395    -5.576493
H     -1.240310    1.773671    -5.209069
