37

Cr     -0.092871    0.048318    -0.042818
O     0.197063    2.093790    0.396525
H     0.299820    2.308825    1.337094
C     0.123040    3.323471    -0.386315
H     -0.163553    3.030216    -1.393442
H     -0.634119    3.986051    0.038653
H     1.098448    3.814815    -0.394521
O     2.337483    -0.128868    -0.043660
H     2.810624    0.717195    0.016650
C     3.314841    -1.201011    -0.129667
H     2.741646    -2.126781    -0.181559
H     3.925785    -1.095377    -1.030157
H     3.954084    -1.214701    0.757205
O     -0.428969    -1.984267    -0.559705
H     -0.112651    -2.269259    -1.432422
C     -0.627507    -3.164171    0.277603
H     -1.163419    -2.830105    1.164018
H     -1.233114    -3.892899    -0.264754
H     0.335362    -3.597964    0.557091
O     -2.522780    0.186684    -0.040603
H     -3.035117    -0.601788    -0.284665
C     -3.448278    1.282878    0.195406
H     -2.833904    2.146385    0.450956
H     -4.030455    1.499838    -0.704551
H     -4.120475    1.049439    1.025785
O     -0.263791    -0.286098    1.972960
H     -1.172238    -0.324731    2.319235
C     0.704020    -0.701584    2.990762
H     1.684012    -0.589013    2.529179
H     0.612439    -0.050244    3.861990
H     0.527453    -1.742606    3.268618
O     -0.223061    0.488953    -2.052651
H     -1.120802    0.556177    -2.421822
C     0.782008    0.494798    -3.116424
H     1.741339    0.379241    -2.614018
H     0.603184    -0.335961    -3.802662
H     0.741447    1.446318    -3.649777
