37

Cr     -0.000280    0.001019    0.002473
C     0.349120    1.977027    -0.419885
N     0.533291    3.105403    -0.639778
C     0.761834    4.489480    -0.912024
H     1.518875    4.578462    -1.695569
H     1.115901    4.982184    -0.003063
H     -0.170040    4.951884    -1.246452
C     2.024515    -0.236949    -0.224863
N     3.169555    -0.390806    -0.368676
C     4.575148    -0.578003    -0.545637
H     4.749299    -1.554913    -1.004155
H     5.070022    -0.537368    0.427935
H     4.967130    0.208532    -1.195029
C     -0.347932    -1.975869    0.423160
N     -0.529524    -3.105139    0.640537
C     -0.753581    -4.490664    0.908929
H     -1.717215    -4.791291    0.490558
H     -0.751859    -4.652345    1.989900
H     0.047009    -5.077010    0.450580
C     -2.025308    0.237450    0.228568
N     -3.170819    0.389483    0.370538
C     -4.577474    0.573519    0.542737
H     -4.788922    1.640592    0.649017
H     -4.907169    0.039607    1.437233
H     -5.099452    0.183374    -0.334817
C     0.400946    0.200267    2.004787
N     0.610073    0.334578    3.142156
C     0.863889    0.497111    4.539027
H     1.506034    -0.318337    4.882102
H     -0.083549    0.471917    5.083022
H     1.363798    1.454135    4.707255
C     -0.403369    -0.198325    -1.999524
N     -0.615966    -0.333423    -3.136152
C     -0.878626    -0.498830    -4.531069
H     -1.661685    -1.248689    -4.666746
H     0.036683    -0.823763    -5.032289
H     -1.205027    0.456870    -4.949294
