32

Cr     0.093478    -0.097303    0.097734
C     0.522153    1.867896    -0.155617
N     0.770521    2.990435    -0.364583
C     1.082206    4.341782    -0.680706
H     2.013959    4.378359    -1.251947
H     1.199868    4.918062    0.241118
H     0.275139    4.775240    -1.277754
C     2.083800    -0.277694    0.441952
N     3.237353    -0.397809    0.584145
C     4.646455    -0.550727    0.703480
H     4.946215    -1.519030    0.293322
H     4.933125    -0.500158    1.757505
H     5.151501    0.247299    0.152243
C     -0.336578    -2.059778    0.363334
N     -0.567322    -3.201184    0.461240
C     -0.839290    -4.596024    0.518892
H     -1.700872    -4.829205    -0.112894
H     -1.058006    -4.886270    1.550255
H     0.031178    -5.154110    0.163175
C     -1.899459    0.086178    -0.225701
N     -3.037555    0.188489    -0.470254
C     -4.409731    0.300561    -0.827657
H     -4.719725    1.348143    -0.782077
H     -5.021140    -0.288854    -0.138751
H     -4.548966    -0.073906    -1.845606
C     -0.218693    0.232079    2.127689
N     -0.393496    0.416379    3.268866
C     -0.609643    0.641071    4.656956
H     -0.074360    -0.119541    5.232010
H     -1.678177    0.575977    4.880275
H     -0.237556    1.631184    4.934579
F     0.370361    -0.380720    -1.651142
