61

Cr     -0.001778    0.012416    -0.004595
N     0.222606    2.093635    -0.127919
N     2.079618    0.236159    0.116217
C     -0.783345    2.979288    -0.261224
H     -1.780468    2.553969    -0.298146
C     -0.577402    4.351376    -0.343727
H     -1.423565    5.022251    -0.445213
C     0.732082    4.831216    -0.298555
H     0.936426    5.895128    -0.364963
C     1.779817    3.923846    -0.168393
H     2.800703    4.284960    -0.135841
C     3.911001    1.792245    0.146145
H     4.272777    2.812724    0.108545
C     4.817971    0.744345    0.277873
H     5.882210    0.948185    0.340526
C     4.337328    -0.564594    0.329654
H     5.007897    -1.410789    0.432885
C     2.964888    -0.769860    0.251327
H     2.538932    -1.766517    0.292943
C     1.502462    2.554792    -0.080195
C     2.541501    1.515516    0.062872
N     -0.126111    -2.068810    0.216718
N     0.127469    -0.215070    2.075803
C     -0.264939    -2.952419    -0.790305
H     -0.307059    -2.524856    -1.786238
C     -0.346302    -4.324913    -0.586725
H     -0.452488    -4.994060    -1.433679
C     -0.293718    -4.807429    0.721505
H     -0.358786    -5.871773    0.924028
C     -0.157891    -3.902206    1.770398
H     -0.119434    -4.265476    2.790322
C     0.167172    -1.774577    3.904180
H     0.132105    -2.795790    4.264137
C     0.302879    -0.728289    4.812413
H     0.371165    -0.934057    5.875934
C     0.351144    0.581599    4.333965
H     0.456992    1.426607    5.005624
C     0.265986    0.789458    2.962306
H     0.304927    1.787058    2.538233
C     -0.071555    -2.532567    1.495379
C     0.076757    -1.495295    2.535658
N     -2.082934    -0.110656    -0.225332
N     -0.229600    0.140068    -2.085345
C     -2.966282    -0.248134    0.782107
H     -2.538221    -0.291741    1.777764
C     -4.339074    -0.326204    0.579253
H     -5.007987    -0.431360    1.426521
C     -4.822190    -0.271544    -0.728669
H     -5.886811    -0.333767    -0.930629
C     -3.917219    -0.137390    -1.778005
H     -4.280998    -0.097320    -2.797684
C     -1.789902    0.181019    -3.913022
H     -2.811351    0.147484    -4.272449
C     -0.743806    0.313838    -4.821891
H     -0.949953    0.381463    -5.885380
C     0.566398    0.359980    -4.344116
H     1.411305    0.463455    -5.016270
C     0.774748    0.275793    -2.972464
H     1.772651    0.313300    -2.548981
C     -2.547216    -0.054592    -1.503735
C     -1.510130    0.091307    -2.544554
