27

Cr     0.168366    -0.197819    -0.185456
O     0.505459    1.932752    0.473508
H     1.240963    2.542754    0.289968
H     -0.270767    2.484103    0.675243
O     2.187090    -0.626218    -0.513262
H     2.716982    -0.424293    -1.303109
H     2.785532    -0.676229    0.252335
O     -0.122018    -2.430998    -0.192826
H     0.649445    -3.016640    -0.282489
H     -0.913080    -2.994130    -0.245515
O     -1.862750    0.256434    0.182363
H     -2.420751    -0.046242    0.919684
H     -2.445932    0.366714    -0.589141
O     0.696433    -0.525454    1.869681
H     0.728706    0.256420    2.447609
H     0.397582    -1.278240    2.407414
C     -0.523630    0.535824    -4.971565
C     -0.449975    1.623647    -4.098712
C     -0.267143    1.385090    -2.742380
N     -0.160106    0.136720    -2.227422
C     -0.234199    -0.912920    -3.080728
C     -0.413281    -0.754536    -4.449349
H     -0.664170    0.690914    -6.036889
H     -0.532302    2.643208    -4.460144
H     -0.197740    2.202539    -2.031521
H     -0.151123    -1.897038    -2.630790
H     -0.464898    -1.628435    -5.090107
