24

Cr     -0.132999    -0.136976    0.132139
N     -0.536926    1.986801    -0.207534
H     -1.333571    2.396004    0.282339
H     -0.739674    2.031613    -1.208461
H     0.245280    2.621879    -0.046023
N     2.016542    -0.010429    -0.250905
H     2.486484    0.859597    0.001717
H     2.060364    -0.078404    -1.269801
H     2.601095    -0.760619    0.119776
N     0.238537    -2.280986    0.406336
H     0.237452    -2.632330    -0.553015
H     -0.481710    -2.802461    0.906673
H     1.126993    -2.554801    0.827053
N     -2.302173    -0.313478    0.387708
H     -2.642320    -1.096719    -0.172470
H     -2.815173    0.501198    0.047469
H     -2.617753    -0.473150    1.344709
N     0.162455    0.192450    2.187581
C     0.341059    0.373977    3.323986
C     0.567343    0.604185    4.745966
H     0.910400    -0.314431    5.233719
H     1.336628    1.372942    4.874066
H     -0.351010    0.944989    5.236000
F     -0.377300    -0.430845    -1.625814
