25

Cr     0.015342    0.019320    -0.063292
S     0.462638    2.417141    0.372731
H     0.248987    3.202724    -0.704570
P     2.566742    2.983010    0.743206
H     2.566308    2.348724    2.011697
P     3.794410    1.392171    -0.278839
H     3.496928    1.828426    -1.595387
S     2.469302    -0.360446    -0.450473
H     2.982592    -1.067570    0.579095
S     -0.291309    -2.461841    -0.297721
H     -1.203807    -2.810299    -1.232671
P     -1.206819    -3.479330    1.447987
H     -2.314870    -2.596543    1.602984
P     -0.054888    -2.511827    3.112365
H     1.204408    -3.044707    2.734037
S     0.473695    -0.484132    2.378696
H     -0.480754    0.193385    3.055015
S     -2.395700    0.454974    0.301708
H     -3.082458    -0.698963    0.437550
P     -3.546819    1.299302    -1.383427
H     -2.959957    2.579101    -1.210150
P     -2.354458    0.769230    -3.222431
H     -2.689299    -0.608695    -3.190754
S     -0.302926    0.390791    -2.500844
H     0.233294    1.565702    -2.895130
