30

Cr     -0.106389    -0.103708    -0.015283
O     0.072551    1.912615    0.396360
H     0.021269    2.599106    -0.291488
H     0.706546    2.222734    1.066683
O     1.945896    -0.306511    0.391025
H     2.261999    -0.798619    1.168280
H     2.538531    -0.539582    -0.344871
O     -0.314097    -2.125101    -0.376368
H     -0.957808    -2.474231    -1.017657
H     -0.295988    -2.748451    0.370608
O     -2.150041    0.104503    -0.455459
H     -2.777747    0.077894    0.288418
H     -2.460261    0.814553    -1.044408
N     -0.399197    -0.477516    2.024603
C     -0.610132    -0.610620    3.159729
C     -0.874394    -0.774225    4.582880
H     -0.102154    -1.403852    5.037973
H     -0.871048    0.203802    5.076316
H     -1.851794    -1.245426    4.732215
C     0.817464    0.687743    -4.789439
C     1.608676    1.263500    -3.793472
C     1.283236    1.035147    -2.462028
N     0.226953    0.279128    -2.072991
C     -0.532253    -0.269420    -3.050996
C     -0.273690    -0.092631    -4.405502
H     1.046061    0.844012    -5.839121
H     2.467416    1.879008    -4.040126
H     1.883751    1.468119    -1.666723
H     -1.384002    -0.861758    -2.730834
H     -0.919387    -0.560218    -5.141356
