25

Cr     -0.119635    0.124962    0.060148
O     0.195049    2.176751    -0.192787
H     -0.591865    2.742633    -0.300211
P     1.676872    3.141443    -0.223199
H     2.019605    2.819548    -1.567894
P     2.990199    1.533039    0.608063
H     2.371894    1.560666    1.883704
O     2.038325    0.175190    0.038908
H     2.602851    -0.414729    -0.490931
O     -0.692829    -1.934208    0.344452
H     -0.469083    -2.526811    -0.395481
P     -0.683458    -2.858990    1.850284
H     -1.876445    -2.260953    2.337832
P     0.636735    -1.475718    3.020994
H     1.780711    -1.750785    2.228662
O     0.251485    -0.007230    2.137089
H     -0.186611    0.622934    2.738828
O     -2.191828    0.416921    -0.058092
H     -2.660700    -0.413610    0.150762
P     -2.735282    1.199290    -1.526841
H     -4.066298    0.702387    -1.564534
P     -1.784535    -0.286167    -2.940546
H     -2.242794    -1.450106    -2.261742
O     -0.280195    -0.209008    -1.998142
H     0.421622    0.147130    -2.572575
