54

Cr     0.028355    -0.008430    0.080843
C     0.060635    -0.001324    -2.095491
N     0.065032    0.026301    -3.255156
C     0.071116    0.070876    -4.686059
H     -0.523831    -0.761624    -5.068810
H     1.102160    -0.014739    -5.036908
H     -0.357909    1.021605    -5.011132
O     0.010253    2.152747    -0.009649
C     -1.118719    2.970979    -0.166144
C     -0.732094    4.261872    -0.224678
C     0.704690    4.287102    -0.109927
C     1.122479    3.009517    0.009882
H     -2.062977    2.454740    -0.198753
H     -1.388327    5.113924    -0.337791
H     2.077273    2.519236    0.107780
H     1.339653    5.162440    -0.117430
O     2.551836    -0.027782    0.105415
C     3.407508    0.315344    1.151210
C     4.695665    0.181179    0.759753
C     4.673489    -0.277018    -0.604722
C     3.373392    -0.388599    -0.959288
H     2.925836    0.604614    2.072037
H     5.571117    0.379901    1.362883
H     2.866208    -0.695411    -1.859832
H     5.527671    -0.495290    -1.231225
O     0.061515    -2.169292    0.033308
C     1.179388    -2.988449    0.251211
C     0.823760    -4.280118    0.094437
C     -0.577739    -4.303369    -0.243166
C     -1.006733    -3.024199    -0.274850
H     2.090146    -2.470063    0.497653
H     1.478890    -5.133410    0.203309
H     -1.949632    -2.536526    -0.462174
H     -1.181777    -5.178828    -0.437211
O     -2.523845    0.007150    0.037422
C     -3.354527    -0.258785    -1.048792
C     -4.651808    -0.125417    -0.688038
C     -4.660911    0.248228    0.701482
C     -3.369669    0.315067    1.099690
H     -2.853183    -0.506600    -1.971090
H     -5.511788    -0.272991    -1.327052
H     -2.885042    0.544838    2.035010
H     -5.529632    0.439272    1.316701
C     -0.177347    -0.024611    5.008581
C     0.107375    1.151154    4.311560
C     0.138823    1.123260    2.923303
N     -0.088232    -0.005291    2.205169
C     -0.368433    -1.139916    2.891984
C     -0.423878    -1.187977    4.279509
H     -0.206734    -0.033211    6.094011
H     0.303807    2.083625    4.829817
H     0.354908    2.022244    2.360041
H     -0.555185    -2.028139    2.304161
H     -0.653400    -2.127700    4.770886
