19

Cr     -0.001734    0.001683    0.009751
P     -0.490742    2.366439    -0.351095
H     -0.803890    3.204625    0.745733
H     0.492844    3.207211    -0.932497
H     -1.552966    2.748899    -1.205323
P     2.408913    0.219025    -0.323312
H     3.011944    1.484638    -0.112577
H     3.322242    -0.522117    0.465861
H     2.985839    -0.044740    -1.588808
P     0.487785    -2.364004    0.362551
H     1.521956    -2.747325    1.249947
H     -0.509336    -3.219977    0.897095
H     0.847051    -3.186528    -0.732010
P     -2.412172    -0.216172    0.343764
H     -3.012784    -1.485485    0.148462
H     -2.991836    0.062563    1.604799
H     -3.324659    0.513549    -0.456786
Cl     0.375377    0.366432    2.298911
Cl     -0.379418    -0.363430    -2.279976
