49

Cr     0.004052    0.012995    0.004005
C     -0.110920    0.371352    2.149118
N     -0.165682    0.571167    3.290720
C     -0.233888    0.822772    4.699535
H     0.535858    0.232165    5.202510
H     -1.222390    0.532125    5.063465
H     -0.069082    1.888449    4.876589
C     0.132811    -0.325420    -2.141912
N     0.199443    -0.498432    -3.287158
C     0.286968    -0.712748    -4.700644
H     0.136193    -1.775168    -4.908169
H     1.275488    -0.399281    -5.045023
H     -0.484110    -0.118754    -5.197386
O     0.017038    2.102423    -0.335429
C     -1.076583    2.970681    -0.187620
C     -0.686680    4.230090    -0.471154
C     0.712160    4.182233    -0.816427
C     1.107699    2.896171    -0.726330
H     -2.001271    2.502184    0.104907
H     -1.316320    5.108672    -0.444475
H     2.034664    2.369524    -0.877259
H     1.338013    5.017957    -1.098074
O     2.519632    0.014007    0.056824
C     3.322650    0.541237    1.064879
C     4.625564    0.297736    0.796882
C     4.667886    -0.425334    -0.446913
C     3.388273    -0.574590    -0.858326
H     2.801714    1.051343    1.859337
H     5.469793    0.593998    1.403961
H     2.924329    -1.044892    -1.710221
H     5.550287    -0.782263    -0.959635
O     -0.008471    -2.078024    0.330035
C     1.048708    -2.883930    0.782407
C     0.628456    -4.162455    0.866898
C     -0.752845    -4.192387    0.455275
C     -1.108173    -2.930634    0.139559
H     1.976899    -2.370039    0.966958
H     1.226396    -5.004919    1.186118
H     -2.009120    -2.454280    -0.208179
H     -1.394990    -5.061098    0.407384
O     -2.521084    0.008790    -0.098246
C     -3.391225    -0.084497    0.984762
C     -4.671389    -0.126330    0.551551
C     -4.628738    -0.058197    -0.885620
C     -3.325070    0.022472    -1.235742
H     -2.927540    -0.117510    1.957335
H     -5.554059    -0.196582    1.172118
H     -2.798470    0.104457    -2.172568
H     -5.473365    -0.067511    -1.560685
