19

Cr     -0.000572    -0.000828    -0.001221
N     -0.236390    2.116058    0.369086
H     -1.220163    2.317789    0.538720
H     0.284501    2.410677    1.194217
H     0.049188    2.655394    -0.447243
N     2.530685    0.305179    -0.167320
H     2.820964    1.248199    -0.421149
H     2.732825    0.173436    0.823825
H     3.121720    -0.329333    -0.702233
N     0.236068    -2.117182    -0.374077
H     1.216606    -2.313690    -0.567117
H     -0.026537    -2.654997    0.451009
H     -0.302366    -2.418035    -1.185468
N     -2.530349    -0.303850    0.169299
H     -2.820538    -1.246169    0.425815
H     -3.117704    0.332043    0.706609
H     -2.737313    -0.172998    -0.820958
Cl     0.415287    -0.372303    2.358238
Cl     -0.415918    0.370614    -2.360317
