13

Cr     -0.000051    -0.000111    0.006072
O     -0.352193    2.031481    0.431392
C     -0.516434    3.158856    0.625919
O     2.065399    0.280608    -0.270781
C     3.188195    0.481508    -0.457304
O     0.351985    -2.031728    -0.418941
C     0.515489    -3.159302    -0.612977
O     -2.065539    -0.280613    0.282774
C     -3.188111    -0.482396    0.469680
O     0.424437    -0.241790    2.054973
C     0.626384    -0.423576    3.178357
O     -0.424391    0.241519    -2.042743
C     -0.625150    0.424362    -3.166171
