35

Cr     -0.002650    0.006932    -0.001157
O     -0.266957    2.258705    0.008192
H     0.526464    2.819306    -0.029125
H     -1.029323    2.845065    0.149112
O     2.034686    0.461427    -0.268264
H     2.460214    0.408018    -1.140894
H     2.718061    0.312304    0.407112
O     0.265351    -2.248170    -0.009198
H     1.043181    -2.829837    -0.051517
H     -0.522748    -2.817679    -0.003228
O     -2.040753    -0.437165    0.267096
H     -2.471696    -0.389256    1.137288
H     -2.721818    -0.301230    -0.413184
C     0.644402    0.015735    4.945686
C     0.464811    1.207433    4.242862
C     0.286020    1.158189    2.865828
N     0.278627    0.002998    2.156502
C     0.450924    -1.146355    2.854759
C     0.633613    -1.182728    4.231789
H     0.786503    0.021567    6.021993
H     0.460741    2.166449    4.750172
H     0.131614    2.062588    2.292374
H     0.435622    -2.057338    2.272088
H     0.763656    -2.138145    4.729043
C     -0.628798    -0.014661    -4.948488
C     -0.336153    -1.189474    -4.255227
C     -0.171391    -1.136561    -2.876706
N     -0.279748    0.007964    -2.158041
C     -0.558628    1.142198    -2.846657
C     -0.739571    1.172477    -4.224248
H     -0.763589    -0.024164    -6.025767
H     -0.234406    -2.138156    -4.771293
H     0.061683    -2.027705    -2.308659
H     -0.628580    2.046569    -2.257104
H     -0.960612    2.114851    -4.714396
