13

Cr     0.200911    -0.197702    0.244790
P     0.634813    2.622108    0.707830
P     0.945529    4.475577    1.010251
P     2.727472    -0.630479    0.621194
P     4.578901    -0.956934    0.905879
P     -0.237490    -3.016730    -0.222817
P     -0.566504    -4.861913    -0.555594
P     -2.325896    0.234887    -0.131561
P     -4.176189    0.568031    -0.415879
P     -0.223406    -0.566886    2.774822
P     -0.544012    -0.848573    4.627713
P     0.627658    0.169642    -2.283879
P     0.959615    0.448279    -4.135280
