43

Cr     0.000779    0.005394    -0.032835
C     -0.087158    2.093724    -0.008138
N     -0.163054    3.253498    0.031256
C     -0.269010    4.678897    0.093340
H     0.556807    5.126443    -0.465084
H     -0.220218    4.990787    1.139814
H     -1.222785    4.988559    -0.340693
C     2.091466    0.019693    -0.037107
N     3.253983    -0.014269    -0.039404
C     4.683164    -0.078484    -0.039828
H     5.004098    -0.885989    -0.702413
H     5.028703    -0.276911    0.978076
H     5.088595    0.873618    -0.390494
C     0.089007    -2.082403    -0.007414
N     0.163630    -3.242245    0.031716
C     0.268359    -4.667670    0.092550
H     -0.556974    -5.114331    -0.467075
H     0.218687    -4.981281    1.138361
H     1.222067    -4.977916    -0.340806
C     -2.090420    -0.011329    -0.036520
N     -3.253121    0.014368    -0.042919
C     -4.682619    0.067644    -0.048699
H     -5.006148    1.073296    0.230630
H     -5.070505    -0.661340    0.666920
H     -5.043530    -0.172274    -1.052075
O     0.001152    0.004954    2.163832
C     0.823294    0.762101    2.998730
C     0.528869    0.493053    4.289049
C     -0.532844    -0.480813    4.287984
C     -0.823328    -0.751653    2.997107
H     1.530246    1.404543    2.500518
H     1.006779    0.928706    5.155741
H     -1.529296    -1.394989    2.498166
H     -1.011399    -0.917337    5.153905
O     0.000806    0.003366    -2.218003
C     0.743689    0.836979    -3.054844
C     0.476224    0.537567    -4.344236
C     -0.480791    -0.539170    -4.340335
C     -0.744194    -0.833702    -3.049166
H     1.374597    1.555254    -2.557892
H     0.903754    1.021592    -5.211608
H     -1.373860    -1.550484    -2.548699
H     -0.909295    -1.027725    -5.204252
