26

Cr     0.033824    0.042114    0.167556
C     -0.036874    0.101367    -2.150290
O     -0.064598    0.121684    -3.277528
O     -0.282171    2.159142    0.106737
H     0.360986    2.867917    -0.070385
H     -1.171337    2.504026    -0.086296
O     2.359216    0.064176    -0.086319
H     2.968635    0.100207    -0.843921
H     2.923212    0.078664    0.705654
O     -0.296335    -2.050935    0.016220
H     0.239308    -2.730709    -0.429201
H     -1.233239    -2.299623    -0.079341
O     -2.458614    0.012288    -0.015919
H     -2.999419    0.001581    0.792692
H     -3.102480    0.036727    -0.745948
C     0.329057    -0.137984    5.029698
C     -0.048973    1.043394    4.388616
C     -0.125069    1.062708    3.002799
N     0.148595    -0.025793    2.240327
C     0.510091    -1.172230    2.871027
C     0.614089    -1.262417    4.252594
H     0.399031    -0.181943    6.112327
H     -0.281994    1.942027    4.949829
H     -0.406266    1.960434    2.466835
H     0.710138    -2.031827    2.243085
H     0.909282    -2.202207    4.706891
