57

Cr     0.013801    -0.004249    0.096260
O     0.024358    2.245501    0.067540
C     -1.096060    3.078342    0.183448
C     -0.699260    4.368717    0.206046
C     0.738285    4.376121    0.102548
C     1.141596    3.089776    0.020276
H     -2.042106    2.564986    0.232686
H     -1.346507    5.231315    0.284807
H     2.090419    2.588541    -0.080295
H     1.381018    5.245681    0.088914
O     2.200239    -0.015948    0.061529
C     3.074094    -0.296390    1.121903
C     4.349182    -0.248412    0.681704
C     4.306429    0.079305    -0.721175
C     3.007523    0.208819    -1.064619
H     2.598579    -0.488859    2.068562
H     5.233678    -0.423110    1.278627
H     2.476880    0.436645    -1.973660
H     5.152916    0.199271    -1.383319
O     -0.021589    -2.259261    0.064971
C     1.070267    -3.129768    0.174569
C     0.639264    -4.407321    0.099385
C     -0.791740    -4.366878    -0.066552
C     -1.156938    -3.066923    -0.084173
H     2.027839    -2.651196    0.299770
H     1.259499    -5.291450    0.153312
H     -2.086860    -2.534592    -0.195143
H     -1.456658    -5.214210    -0.162641
O     -2.194873    0.008146    -0.011662
C     -3.123367    0.155022    1.029801
C     -4.376682    0.093645    0.532259
C     -4.263522    -0.103025    -0.890755
C     -2.947491    -0.148071    -1.186909
H     -2.699946    0.287635    2.010887
H     -5.291282    0.176228    1.103299
H     -2.376207    -0.269787    -2.090981
H     -5.075919    -0.196383    -1.598418
C     -0.039203    -0.003720    5.027685
C     -0.367442    -1.155386    4.311244
C     -0.351451    -1.116533    2.922274
N     -0.025041    -0.002251    2.220195
C     0.289712    1.112315    2.926956
C     0.292247    1.149629    4.316055
H     -0.042191    -0.004917    6.113500
H     -0.634094    -2.078137    4.815370
H     -0.608669    -1.994174    2.344349
H     0.552381    1.991719    2.354233
H     0.552380    2.072455    4.823604
O     0.038091    -0.007572    -2.092310
C     -0.127075    1.099855    -2.937649
C     0.007166    0.706246    -4.222274
C     0.270864    -0.710846    -4.213115
C     0.284378    -1.110159    -2.923584
H     -0.332997    2.031003    -2.436841
H     -0.071131    1.343655    -5.092179
H     0.440025    -2.045141    -2.411867
H     0.429307    -1.344913    -5.074659
