52

Cr     -0.001664    -0.010702    0.086603
O     0.010590    2.195539    0.095155
C     -1.071204    3.029770    0.406984
C     -0.674175    4.318678    0.359869
C     0.723809    4.324261    0.006821
C     1.106435    3.038301    -0.141867
H     -1.998722    2.521835    0.613149
H     -1.297733    5.181471    0.550261
H     2.027697    2.537462    -0.389501
H     1.356316    5.192722    -0.116923
O     2.171586    -0.022215    0.015752
C     3.081612    0.170706    1.067179
C     4.342924    0.069222    0.599362
C     4.254952    -0.200172    -0.813930
C     2.945792    -0.247512    -1.135133
H     2.642134    0.376465    2.028293
H     5.246755    0.173800    1.183675
H     2.390012    -0.426713    -2.039081
H     5.079993    -0.341100    -1.498584
O     -0.011272    -2.218237    0.102782
C     1.053381    -3.043381    0.488084
C     0.669282    -4.335192    0.421465
C     -0.702529    -4.352526    -0.021803
C     -1.083590    -3.070012    -0.200881
H     1.964048    -2.529810    0.748709
H     1.284161    -5.192975    0.656543
H     -1.993205    -2.578453    -0.504174
H     -1.319261    -5.226249    -0.182688
O     -2.171776    -0.020690    -0.014001
C     -3.075646    -0.446103    0.971348
C     -4.322271    -0.483433    0.457584
C     -4.230353    -0.064913    -0.919066
C     -2.932941    0.202645    -1.173841
H     -2.642555    -0.672828    1.930527
H     -5.219440    -0.771654    0.988249
H     -2.382235    0.548673    -2.031496
H     -5.046368    0.025831    -1.622884
C     -0.039551    0.007707    2.175842
N     -0.069867    0.021202    3.337540
C     -0.103252    0.039474    4.770067
H     0.521988    -0.772720    5.149387
H     -1.134306    -0.096657    5.106100
H     0.278141    1.001693    5.121163
O     0.006786    -0.004749    -2.109849
C     0.022380    -1.125811    -2.953387
C     0.056115    -0.719684    -4.240654
C     0.058421    0.720956    -4.236884
C     0.030757    1.120684    -2.947505
H     -0.001144    -2.077609    -2.449067
H     0.076665    -1.363573    -5.109256
H     0.028185    2.069868    -2.438487
H     0.080083    1.369540    -5.101791
