67

Cr     -0.045573    0.006195    0.009377
C     0.007812    5.029989    0.108905
C     1.174006    4.309126    -0.149066
C     1.114574    2.920133    -0.175391
N     -0.025214    2.224869    0.045398
C     -1.148363    2.934555    0.298217
C     -1.174607    4.325114    0.335710
H     0.021644    6.115257    0.134166
H     2.120593    4.808862    -0.329052
H     1.999816    2.329883    -0.370971
H     -2.044942    2.352287    0.466247
H     -2.107835    4.839763    0.540365
C     5.465044    -0.006777    -0.145712
C     4.798509    -0.077885    1.077365
C     3.405944    -0.075288    1.081874
N     2.654980    0.000935    -0.036203
C     3.317405    0.074038    -1.209349
C     4.705986    0.070370    -1.313383
H     6.549710    -0.012140    -0.187716
H     5.343502    -0.136083    2.013971
H     2.863113    -0.135496    2.020850
H     2.697899    0.141629    -2.098680
H     5.177677    0.128549    -2.288931
C     -0.034317    -5.024864    -0.055257
C     -1.204805    -4.315129    -0.323531
C     -1.171750    -2.924764    -0.292946
N     -0.053094    -2.219021    -0.009746
C     1.074141    -2.918578    0.253195
C     1.125946    -4.308159    0.237745
H     -0.026082    -6.110284    -0.075727
H     -2.133793    -4.825993    -0.554931
H     -2.059944    -2.341328    -0.496273
H     1.954976    -2.329630    0.471691
H     2.062746    -4.812067    0.451017
C     -5.526107    0.012438    0.059456
C     -4.824104    -0.060415    -1.144249
C     -3.431741    -0.055524    -1.108328
N     -2.714294    0.017541    0.031724
C     -3.409555    0.091563    1.185422
C     -4.800837    0.091634    1.248877
H     -6.612050    0.008820    0.070102
H     -5.340685    -0.118266    -2.097065
H     -2.857114    -0.112336    -2.028592
H     -2.814687    0.156868    2.091975
H     -5.299586    0.152664    2.210802
C     0.204153    -0.103113    5.001859
C     0.718797    0.979641    4.288457
C     0.604392    0.987251    2.902478
N     0.022888    -0.013632    2.204642
C     -0.478633    -1.053838    2.907055
C     -0.411437    -1.135415    4.293633
H     0.279818    -0.141149    6.084101
H     1.202928    1.810020    4.792066
H     0.990729    1.814179    2.319958
H     -0.944685    -1.840882    2.326848
H     -0.833526    -1.995650    4.802193
C     0.013533    0.056487    -5.001332
C     0.470744    -1.053869    -4.291183
C     0.421650    -1.030560    -2.901881
N     -0.048643    0.022449    -2.196088
C     -0.487633    1.093071    -2.895307
C     -0.473959    1.149945    -4.285014
H     0.037601    0.069289    -6.086694
H     0.861700    -1.928741    -4.800048
H     0.770714    -1.873576    -2.320035
H     -0.856842    1.925423    -2.309328
H     -0.837954    2.038501    -4.790085
