18

Cr     -0.022165    -0.000388    -0.072562
O     0.356919    1.984389    0.383368
H     0.885681    2.563065    -0.197574
H     -0.381992    2.527282    0.717514
O     1.992508    -0.254394    -0.359116
H     2.505748    -0.275389    -1.186466
H     2.594398    -0.495788    0.366959
O     -0.347350    -1.985436    -0.263567
H     -0.163350    -2.500469    -1.071320
H     -0.929853    -2.531958    0.296890
O     -1.960412    0.372422    0.435352
H     -2.302764    0.178799    1.328682
H     -2.720038    0.458812    -0.169704
O     0.112112    -0.275006    2.055017
H     0.463307    0.464804    2.582655
H     0.376691    -1.088978    2.519159
C     -0.181310    0.326080    -1.999697
O     -0.276677    0.532234    -3.113755
