13

Cr     -0.000392    -0.000398    0.042032
C     0.120813    2.004979    -0.021369
O     0.193309    3.132544    -0.100932
C     2.004992    0.120697    -0.021413
O     3.132560    0.193128    -0.101005
C     -0.121683    -2.005375    -0.025835
O     -0.194273    -3.132764    -0.107886
C     -2.005379    -0.121573    -0.025797
O     -3.132774    -0.194093    -0.107827
C     -0.001763    -0.001805    2.163129
O     -0.002139    -0.002202    3.293330
C     0.002292    0.002341    -1.892180
N     0.004438    0.004521    -3.070567
