16

Cr     -0.037085    -0.033498    -0.074667
S     -0.228997    2.483268    0.083384
H     0.217066    3.045994    -1.062616
H     0.823189    2.884682    0.826385
S     2.440064    0.316831    0.134925
H     3.063790    -0.190377    -0.953842
H     2.898805    -0.624217    0.984493
S     0.507594    -2.459900    -0.482584
H     -0.667820    -3.028761    -0.827954
H     0.464792    -2.907414    0.790215
S     -2.497737    -0.441786    0.103663
H     -3.162272    0.248296    -0.850362
H     -2.866835    0.363930    1.119109
I     0.003963    -0.109023    2.623203
C     -0.361648    0.159362    -1.968282
O     -0.596868    0.292611    -3.082070
