25
03/24/2023 16:57, XYZ structure generated by mol3D Class, molSimplify
Cr     -0.008592    -0.006169    -0.000539
N     -0.274902    2.167237    0.395147
H     -1.248089    2.385647    0.623435
H     0.276343    2.582148    1.150933
H     -0.078909    2.743626    -0.427542
N     2.182622    0.258062    -0.151056
H     2.446447    1.246949    -0.124353
H     2.737440    -0.179308    0.589303
H     2.596479    -0.083574    -1.023175
N     0.235941    -2.191844    -0.374069
H     1.210359    -2.438865    -0.566394
H     -0.009298    -2.762613    0.439669
H     -0.300210    -2.597865    -1.146099
N     -2.198095    -0.294632    0.131781
H     -2.435441    -1.290086    0.110922
H     -2.632734    0.043409    0.995147
H     -2.759251    0.117891    -0.618057
N     0.371960    -0.269741    2.165726
H     -0.413917    0.001147    2.762897
H     0.564265    -1.238988    2.431601
H     1.168202    0.259431    2.530736
N     -0.316897    0.347312    -2.165275
H     -1.272338    0.600774    -2.428049
H     0.268394    1.081496    -2.573520
H     -0.109785    -0.481447    -2.729169
