31

Cr     0.007703    0.015961    -0.050640
C     0.989436    1.816397    0.009052
O     1.550307    2.798730    0.040132
C     1.840958    -0.905609    -0.022658
O     2.860468    -1.396530    -0.009670
C     -0.979148    -1.782048    -0.113640
O     -1.547051    -2.760198    -0.147840
C     -1.822681    0.939651    -0.072480
O     -2.841055    1.433018    -0.079395
C     -0.118481    -0.090704    4.849536
C     -0.463654    1.072084    4.156544
C     -0.413268    1.071100    2.770379
N     -0.041422    -0.018853    2.046803
C     0.292303    -1.144893    2.733163
C     0.266825    -1.216612    4.117933
H     -0.147985    -0.119057    5.934636
H     -0.769577    1.972869    4.677845
H     -0.676674    1.963972    2.214832
H     0.591441    -2.008843    2.150262
H     0.545883    -2.143182    4.608466
C     0.092499    0.080576    -4.952350
C     0.447002    -1.074037    -4.250511
C     0.413696    -1.057063    -2.864018
N     0.049964    0.040794    -2.148113
C     -0.292208    1.158953    -2.843049
C     -0.283701    1.214827    -4.228922
H     0.109384    0.096403    -6.037927
H     0.748144    -1.980483    -4.765039
H     0.687306    -1.942890    -2.302077
H     -0.583882    2.029227    -2.265823
H     -0.570516    2.134913    -4.726996
