20

Cr     0.048418    -0.008893    0.001612
O     -0.300862    1.968004    0.501685
H     -0.279264    2.759845    -0.063150
H     -0.203505    2.255638    1.428083
O     2.084253    0.253215    -0.146206
H     2.640316    -0.046105    -0.887966
H     2.585487    0.950609    0.314721
O     0.254388    -2.073226    -0.304562
H     0.437195    -2.552070    -1.130202
H     0.427975    -2.688468    0.428113
O     -1.938534    -0.430113    0.500253
H     -2.530538    0.284538    0.798481
H     -2.484557    -1.060341    -0.003534
O     0.281588    -0.099005    2.134980
H     1.117057    -0.318552    2.584169
H     -0.422810    -0.554848    2.629611
P     -0.347193    0.255619    -2.483938
H     0.568620    1.009828    -3.248306
H     -0.459055    -0.871962    -3.327349
H     -1.537514    0.916837    -2.855171
