13
03/24/2023 16:57, XYZ structure generated by mol3D Class, molSimplify
Cr     -0.000002    -0.000005    -0.000004
C     -0.000093    2.018620    0.000090
O     -0.000136    3.147287    0.000165
C     2.108657    0.000121    -0.000002
O     3.233752    0.000196    -0.000001
C     0.000092    -2.018623    -0.000086
O     0.000138    -3.147291    -0.000149
C     -2.108658    -0.000127    -0.000002
O     -3.233754    -0.000197    -0.000001
C     -0.000000    -0.000004    2.108655
O     0.000002    0.000019    3.233750
C     0.000000    0.000008    -2.108660
O     0.000002    -0.000002    -3.233756
