25

Cr     -0.064660    -0.036811    255.032446
P     0.627940    2.317844    255.372738
H     1.662865    2.627283    256.286221
H     -0.272251    3.366459    255.647354
O     1.144243    2.912817    253.884400
O     1.988920    1.913068    253.235335
P     1.040352    0.564336    252.890323
H     0.313984    0.901484    251.724796
H     2.081956    -0.203258    252.331429
P     -0.505227    -2.452715    254.665001
H     -0.562321    -3.017193    253.369631
H     -1.558408    -3.147004    255.293831
O     0.735495    -3.271940    255.455828
O     2.006898    -2.714829    254.997450
P     2.106934    -1.117884    255.520400
H     3.296478    -0.807845    254.831249
H     2.593051    -1.182634    256.847211
P     -1.161649    -0.406003    257.210355
H     -1.403999    -1.679589    257.762199
H     -0.679879    0.276312    258.352229
O     -2.779514    0.039707    257.065840
O     -2.866147    1.279735    256.299121
P     -2.312563    0.973374    254.738536
H     -3.375873    0.308243    254.085578
H     -2.497243    2.286486    254.260817
