21

Cr     0.071018    0.072235    0.087830
S     0.632336    2.503797    -0.363196
H     0.212688    3.225473    0.698505
H     -0.282210    3.025528    -1.208652
S     2.560919    -0.164777    0.631424
H     2.812934    -1.491159    0.660368
H     3.285421    0.070467    -0.484143
S     -0.259690    -2.408703    0.480962
H     -0.857294    -2.700151    1.656190
H     -1.273487    -2.868390    -0.282515
S     -2.380639    0.511778    -0.271788
H     -3.138609    -0.535364    0.115397
H     -2.738683    0.448546    -1.571916
P     -0.201477    0.408109    2.602775
H     0.476830    1.492563    3.197320
H     -1.496968    0.634545    3.114100
H     0.213899    -0.620091    3.475101
P     0.469992    -0.278703    -2.399274
H     1.336498    0.598350    -3.085992
H     1.068093    -1.506419    -2.755955
H     -0.611459    -0.288353    -3.305530
