19

Cr     -0.010551    -0.093449    -0.060634
S     0.322661    2.390165    0.288077
H     0.241254    2.749869    1.586650
H     -0.772071    3.081555    -0.097076
S     2.442229    -0.570997    0.389620
H     3.069237    0.600175    0.637587
H     3.082009    -0.786781    -0.780565
S     -0.343724    -2.584442    -0.485965
H     0.707659    -3.306148    -0.040258
H     -0.128140    -2.848292    -1.793047
S     -2.483954    0.359963    -0.471925
H     -3.023009    -0.767289    -0.986731
H     -3.098724    0.221975    0.723089
S     -0.396576    -0.581748    2.406187
H     0.749111    -0.942902    3.023892
H     -0.560869    0.556103    3.113491
S     0.236941    0.200640    -2.587487
H     -0.419602    1.321552    -2.960099
H     1.462138    0.744905    -2.750753
