35

Cr     -0.085085    -0.076690    -0.035153
C     0.398053    3.136300    -0.515201
N     0.225311    2.002188    -0.361059
C     0.615922    4.563079    -0.707218
H     0.237623    4.870859    -1.687508
H     1.686183    4.786792    -0.651060
H     0.092058    5.127188    0.071310
C     3.124545    -0.599079    -0.490192
N     1.990213    -0.417466    -0.347509
C     4.551514    -0.827444    -0.667352
H     5.064090    0.126172    -0.830486
H     4.721931    -1.477009    -1.532151
H     4.964577    -1.306316    0.226477
C     -0.556414    -3.279845    0.515601
N     -0.393278    -2.153809    0.302017
C     -0.760385    -4.695847    0.786052
H     0.196648    -5.225434    0.738128
H     -1.443023    -5.123936    0.044717
H     -1.190445    -4.824884    1.784648
C     -3.285421    0.444817    0.487727
N     -2.159754    0.262849    0.288451
C     -4.701120    0.672923    0.739850
H     -5.021446    0.093570    1.611936
H     -5.290386    0.364607    -0.129970
H     -4.878646    1.735939    0.932769
C     0.514801    0.452773    3.495562
N     0.322246    0.280001    2.365649
C     0.758062    0.670131    4.917579
H     -0.169803    0.535156    5.482141
H     1.129215    1.686356    5.083445
H     1.502908    -0.043221    5.284048
N     -0.493415    -0.393449    -2.408246
H     -1.297549    0.123250    -2.766829
H     0.300350    -0.116108    -2.987187
H     -0.669507    -1.374180    -2.630929
