31

Cr     0.035911    0.065738    -0.043805
P     -0.012093    2.648151    -0.175757
H     -0.524080    3.294225    -1.321304
H     -0.688792    3.389864    0.815825
C     1.706163    3.275883    -0.074884
H     1.856548    4.353466    -0.125234
C     2.752297    2.451185    0.056758
H     3.764666    2.848765    0.114523
P     2.540161    0.634387    0.147573
H     3.435489    0.149583    -0.829339
H     3.262084    0.276646    1.306245
P     0.396549    -2.462887    0.387030
H     -0.437486    -3.375164    -0.295666
H     1.641974    -3.030144    0.039087
C     0.194598    -2.951430    2.138235
H     0.314657    -4.010927    2.360920
C     -0.083487    -2.085314    3.121776
H     -0.185659    -2.463526    4.138371
P     -0.302826    -0.276493    2.858401
H     0.553343    0.225791    3.867761
H     -1.514758    -0.069469    3.559867
P     -2.495800    -0.261880    -0.495474
H     -3.135208    -1.383219    0.077249
H     -3.381983    0.735226    -0.033670
C     -2.916955    -0.401638    -2.269568
H     -3.975011    -0.498877    -2.509578
C     -2.003332    -0.393652    -3.249309
H     -2.341258    -0.483919    -4.281082
P     -0.192118    -0.243082    -2.955661
H     0.133186    0.740046    -3.920594
H     0.271657    -1.355937    -3.697458
