22

Cr     -0.030334    -0.026967    0.216345
C     0.307137    2.004855    0.095711
O     0.505019    3.114981    0.033540
C     2.005116    -0.343409    0.089055
O     3.121048    -0.505556    0.026005
C     -0.376491    -2.060345    0.138389
O     -0.583122    -3.169989    0.099502
C     -2.067897    0.287421    0.131623
O     -3.184484    0.449422    0.082179
C     0.070426    0.031645    5.034160
C     -0.661827    0.989830    4.325397
C     -0.676584    0.939428    2.941153
N     -0.000234    -0.012340    2.235182
C     0.707512    -0.945071    2.935999
C     0.763677    -0.951232    4.320097
H     0.099089    0.049309    6.119710
H     -1.218979    1.768875    4.835290
H     -1.238673    1.672313    2.373260
H     1.236772    -1.698650    2.363648
H     1.342222    -1.716897    4.826393
C     -0.049117    -0.035079    -1.996120
O     -0.054989    -0.034982    -3.121715
