19

Cr     0.075127    -0.084799    0.036119
O     0.524620    1.968949    -0.102110
H     1.167624    2.286589    -0.761430
H     -0.161446    2.656322    -0.027177
O     2.096970    -0.291020    -0.390576
H     2.489304    -0.830153    -1.101711
H     2.780337    -0.191676    0.297832
O     -0.293622    -2.111068    0.228376
H     0.081316    -2.825501    -0.318857
H     -0.602419    -2.529862    1.051869
O     -1.922930    0.379665    0.274775
H     -2.306361    0.727417    1.100029
H     -2.636293    -0.102780    -0.181338
S     0.606034    0.272797    2.522740
H     -0.377897    -0.081812    3.376931
H     0.505371    1.597152    2.756699
S     -0.186151    -0.508496    -2.487368
H     -1.414090    -1.010730    -2.736283
H     -0.426764    0.675265    -3.089381
