25

Cr     -0.000030    -0.000156    0.000006
O     -0.000005    2.112795    -0.000004
H     0.723787    2.685425    -0.304997
H     -0.723785    2.685433    0.304999
O     2.440767    -0.003262    -0.052496
H     3.067418    0.018884    -0.796064
H     3.000929    -0.019266    0.742369
O     -0.000005    -2.109016    -0.000002
H     0.731314    -2.681087    -0.287680
H     -0.731314    -2.681096    0.287682
O     -2.440778    -0.003262    0.052493
H     -3.067422    0.018882    0.796066
H     -3.000940    -0.019266    -0.742373
C     0.004546    0.003506    2.180457
N     0.010102    0.002102    3.340644
C     0.011784    -0.001223    4.773165
H     0.620265    -0.837810    5.124699
H     -1.016731    -0.111959    5.124956
H     0.430627    0.942875    5.129189
C     -0.004580    0.003505    -2.180444
N     -0.010079    0.002103    -3.340658
C     -0.011768    -0.001221    -4.773163
H     -0.620242    -0.837811    -5.124694
H     1.016740    -0.111955    -5.124964
H     -0.430603    0.942878    -5.129186
