34

Cr     -0.112625    -0.098908    0.015859
C     0.384120    3.096995    -0.496986
N     0.193115    1.971091    -0.310701
C     0.624707    4.513068    -0.734154
H     0.401686    4.758803    -1.777536
H     1.673042    4.751760    -0.527567
H     -0.014040    5.114934    -0.079656
C     3.093012    -0.594295    -0.452538
N     1.956363    -0.440618    -0.298331
C     4.523021    -0.786611    -0.646136
H     5.035082    0.180703    -0.618361
H     4.708202    -1.260508    -1.615639
H     4.923580    -1.425885    0.147338
C     -0.604417    -3.294387    0.495049
N     -0.428495    -2.165847    0.307559
C     -0.825573    -4.713667    0.730120
H     0.131835    -5.244870    0.727212
H     -1.465854    -5.126377    -0.056430
H     -1.311468    -4.858589    1.700554
C     -3.310978    0.408217    0.477464
N     -2.182684    0.231722    0.288719
C     -4.729794    0.629703    0.714994
H     -5.069823    0.002765    1.545798
H     -5.302737    0.374977    -0.182717
H     -4.905828    1.680971    0.965358
C     0.464252    0.411884    3.519619
N     0.275438    0.244827    2.388252
C     0.700792    0.621469    4.943667
H     -0.248776    0.603122    5.487718
H     1.183412    1.590460    5.105199
H     1.349557    -0.167925    5.336068
O     -0.248568    -0.211022    -2.395938
H     -0.986243    0.134431    -2.925172
H     0.127648    -0.931889    -2.927046
