22

Cr     -0.000224    -0.000040    0.186906
C     0.044612    2.689214    -0.287024
O     0.062699    3.798943    -0.489684
C     2.245185    -0.006657    0.200414
O     3.369563    -0.002826    0.256554
C     -0.044549    -2.689167    -0.285812
O     -0.062610    -3.798796    -0.489098
C     -2.245047    0.006675    0.200291
O     -3.369412    0.002877    0.256534
C     0.000143    -0.000353    -2.104574
O     0.000102    -0.000273    -3.230283
C     -0.000118    0.000386    5.010301
C     -0.127466    1.198057    4.300806
C     -0.123168    1.162784    2.914645
N     -0.000087    0.000248    2.219173
C     0.123275    -1.162122    2.914887
C     0.127006    -1.197426    4.301054
H     -0.000211    0.000552    6.096232
H     -0.229823    2.150310    4.810374
H     -0.223772    2.075592    2.337249
H     0.223687    -2.075129    2.337845
H     0.229610    -2.149524    4.810951
