18

Cr     0.048422    0.020266    0.234921
S     -0.221685    2.536263    0.342932
H     -1.033982    2.871853    1.369212
H     -1.125825    2.833896    -0.611726
S     2.472767    0.586600    0.718224
H     3.154439    -0.531548    0.391452
H     2.770457    1.216761    -0.438391
S     0.333148    -2.452747    -0.130116
H     1.465426    -2.915449    0.444761
H     0.844194    -2.428204    -1.379748
S     -2.416380    -0.344192    -0.260624
H     -2.702006    -1.664860    -0.238786
H     -2.439349    -0.250232    -1.605897
S     -0.226687    -0.467335    2.740672
H     -1.535109    -0.632388    3.028501
H     -0.110231    0.676197    3.449287
C     0.259829    0.393238    -1.702854
N     0.462908    0.553151    -2.845786
