49

Cr     -0.002237    -0.068329    -0.017056
O     -0.000876    2.134791    -0.014489
C     -0.827696    2.971132    0.742487
C     -0.507517    4.260035    0.499189
C     0.573133    4.259268    -0.454357
C     0.851903    2.970089    -0.743040
H     -1.568242    2.472264    1.346171
H     -0.980695    5.126633    0.939830
H     1.574116    2.470259    -1.367880
H     1.072960    5.125476    -0.865223
O     2.176060    -0.067411    0.039457
C     2.988433    0.675286    0.901013
C     4.284005    0.369758    0.674321
C     4.312438    -0.615523    -0.376884
C     3.033013    -0.853847    -0.736408
H     2.472782    1.357508    1.556639
H     5.136167    0.792452    1.188331
H     2.552437    -1.508485    -1.444494
H     5.189764    -1.082913    -0.802265
O     -0.002641    -2.267559    -0.019747
C     0.805461    -3.109636    0.751610
C     0.513841    -4.396888    0.466751
C     -0.528146    -4.389247    -0.529232
C     -0.813545    -3.097796    -0.800394
H     1.513785    -2.615344    1.396569
H     0.981228    -5.267266    0.906528
H     -1.515674    -2.592829    -1.443674
H     -0.999234    -5.252370    -0.979056
O     -2.180255    -0.068578    -0.073182
C     -3.039473    -0.850366    0.705397
C     -4.319562    -0.585070    0.367644
C     -4.288960    0.413087    -0.671088
C     -2.991781    0.698479    -0.913811
H     -2.559284    -1.524170    1.395703
H     -5.199045    -1.042518    0.799321
H     -2.473874    1.378283    -1.570215
H     -5.141399    0.857077    -1.165874
C     -0.073173    -0.059654    2.103015
N     -0.113403    -0.038765    3.264140
C     -0.160219    -0.005218    4.694700
H     0.568528    -0.715753    5.091974
H     -1.165334    -0.276660    5.026057
H     0.083300    1.004994    5.033030
C     0.064404    -0.047113    -2.135785
N     0.099365    -0.017348    -3.296890
C     0.141413    0.028957    -4.727511
H     -0.597816    -0.668615    -5.128822
H     1.142054    -0.251727    -5.065095
H     -0.090103    1.045625    -5.055178
