22

Cr     0.128432    -0.115586    -0.029067
O     -0.187583    1.885480    0.477077
H     0.184718    2.658418    0.017416
H     -1.143127    2.046648    0.598498
O     2.524708    -0.160559    -0.387380
H     2.967181    0.067720    -1.222814
H     3.204032    -0.048951    0.299993
O     0.503815    -2.165140    -0.217648
H     1.430479    -2.338261    -0.467578
H     -0.055647    -2.829192    -0.657067
O     -2.231493    -0.067279    0.500133
H     -2.547684    -0.363133    1.371367
H     -3.001128    -0.140336    -0.090689
O     0.381321    -0.431629    2.019185
H     0.585187    0.263624    2.667984
H     0.593765    -1.297354    2.408104
C     -0.394604    0.366936    -3.220360
N     -0.198291    0.198368    -2.089204
C     -0.639863    0.577295    -4.638203
H     0.130337    1.235477    -5.055521
H     -1.622554    1.040356    -4.780955
H     -0.615706    -0.382813    -5.165543
