19
03/24/2023 16:57, XYZ structure generated by mol3D Class, molSimplify
Cr     -0.000311    0.000811    -0.002517
C     0.432192    1.977279    -0.353117
N     0.658635    3.100946    -0.538898
H     0.856929    4.075992    -0.701502
C     2.003362    -0.189671    0.407930
N     3.136817    -0.315853    0.626372
H     4.120661    -0.425399    0.817527
C     -0.434031    -1.975305    0.348440
N     -0.661453    -3.098750    0.534347
H     -0.860581    -4.073565    0.697264
C     -2.003625    0.189381    -0.415085
N     -3.136890    0.314663    -0.634952
H     -4.120667    0.423286    -0.826984
C     -0.217718    0.221479    2.027699
N     -0.352942    0.362689    3.172327
H     -0.469599    0.485267    4.166209
C     0.219192    -0.221824    -2.032821
N     0.355861    -0.364229    -3.177103
H     0.473982    -0.487732    -4.170714
