55

Cr     0.043759    -0.011053    0.019173
O     0.027990    2.118412    -0.014919
C     -1.098787    2.950954    0.127968
C     -0.723272    4.236280    -0.027405
C     0.697051    4.247582    -0.279146
C     1.122567    2.968276    -0.266392
H     -2.022462    2.440988    0.341575
H     -1.374048    5.097793    0.032613
H     2.069015    2.470735    -0.395466
H     1.315645    5.119717    -0.442024
O     2.183095    -0.025533    0.020021
C     3.029595    0.065287    1.143825
C     4.312329    -0.032434    0.739837
C     4.308329    -0.191522    -0.693871
C     3.023042    -0.186921    -1.100159
H     2.524377    0.195726    2.086249
H     5.181065    0.004890    1.382417
H     2.514064    -0.273153    -2.045326
H     5.173104    -0.296218    -1.335019
O     0.028314    -2.133642    0.044300
C     1.082152    -2.993224    0.410186
C     0.672491    -4.272100    0.290268
C     -0.695186    -4.250095    -0.168195
C     -1.057273    -2.959179    -0.305303
H     1.995076    -2.503615    0.706629
H     1.266919    -5.151130    0.499393
H     -1.951712    -2.441289    -0.607706
H     -1.323419    -5.108095    -0.364963
O     -2.104076    -0.020598    0.010098
C     -2.952560    -0.159381    1.126932
C     -4.235301    -0.159558    0.712038
C     -4.229309    -0.019834    -0.723541
C     -2.943033    0.061116    -1.120281
H     -2.452472    -0.243878    2.077511
H     -5.105792    -0.249215    1.347415
H     -2.433834    0.175834    -2.062879
H     -5.093728    0.016505    -1.372699
O     0.059973    0.064462    2.462684
C     -0.208711    -0.987726    3.341346
C     -0.326570    -0.513870    4.602228
C     -0.119958    0.910426    4.540325
C     0.110801    1.221272    3.245366
H     -0.258366    -1.968161    2.894085
H     -0.532587    -1.101654    5.486407
H     0.319559    2.132837    2.707953
H     -0.140243    1.605492    5.368449
O     0.045624    -0.004209    -2.424952
C     -0.123560    1.113160    -3.247542
C     -0.075028    0.739526    -4.545592
C     0.136274    -0.685415    -4.567667
C     0.202625    -1.097306    -3.281693
H     -0.249850    2.052635    -2.733101
H     -0.173708    1.394595    -5.400752
H     0.336206    -2.051808    -2.796639
H     0.224821    -1.312935    -5.444127
