27

Cr     -0.145547    -0.171176    -0.148456
O     -0.324137    2.150061    0.603092
H     0.410339    2.767318    0.766369
H     -1.127045    2.699006    0.627183
O     1.953943    -0.198271    0.203164
H     2.665886    -0.125427    -0.453782
H     2.358047    -0.315316    1.079034
O     -0.192285    -2.612177    -0.151003
H     0.555515    -3.215969    0.001680
H     -0.935083    -3.191892    -0.394521
O     -2.266034    -0.164796    -0.492319
H     -2.999643    -0.291756    0.131843
H     -2.648350    -0.064078    -1.379884
O     -0.368672    -0.470691    1.914018
H     -0.579802    0.263615    2.515053
H     -0.616295    -1.313252    2.331004
C     0.557710    0.569915    -4.919523
C     0.299207    1.643295    -4.063305
C     0.105484    1.392069    -2.710896
N     0.158146    0.141125    -2.192006
C     0.409348    -0.896628    -3.026535
C     0.614913    -0.720864    -4.388795
H     0.710260    0.736224    -5.981809
H     0.249305    2.660870    -4.436173
H     -0.093921    2.194527    -2.007231
H     0.435079    -1.881069    -2.570655
H     0.813887    -1.581295    -5.018957
