17

Cr     -0.000607    0.006988    -0.001699
C     0.415466    -0.006969    2.678044
O     0.616926    0.003949    3.788283
C     -0.416481    -0.006869    -2.676079
O     -0.616657    0.004170    -3.786547
O     -0.000521    2.078394    -0.000421
H     0.762815    2.657766    -0.179658
H     -0.762950    2.658484    0.180486
O     2.086106    0.006754    -0.343556
H     2.541693    0.048105    -1.204091
H     2.775225    -0.073139    0.341262
O     -0.005174    -2.066860    -0.002266
H     0.714407    -2.641192    -0.321326
H     -0.715410    -2.649158    0.324394
O     -2.084259    0.003302    0.341756
H     -2.536170    0.048612    1.204013
H     -2.774409    -0.072336    -0.342596
