19
03/24/2023 16:57, XYZ structure generated by mol3D Class, molSimplify
Cr     0.000051    -0.000679    -0.001512
C     0.000085    2.176211    -0.000292
N     0.000102    3.334695    0.000291
H     0.000116    4.343825    0.000844
C     2.176968    -0.000712    -0.000287
N     3.335452    -0.000730    0.000296
H     4.344582    -0.000731    0.000851
C     0.000020    -2.177706    -0.000262
N     0.000007    -3.336191    0.000374
H     -0.000005    -4.345320    0.000984
C     -2.176864    -0.000653    -0.000275
N     -3.335347    -0.000643    0.000353
H     -4.344478    -0.000620    0.000956
C     -0.000009    -0.000898    2.557107
N     -0.000081    -0.001008    3.720328
H     -0.000147    -0.001108    4.728041
C     -0.000004    -0.000916    -2.557968
N     -0.000020    -0.000983    -3.721170
H     -0.000017    -0.001025    -4.728889
