20

Cr     0.002000    0.011660    -0.012498
O     -0.343952    1.962256    -0.336197
H     0.239070    2.731217    -0.461176
H     -1.260600    2.281193    -0.246330
O     2.191453    0.230770    -0.078941
H     2.773755    -0.321915    -0.629089
H     2.646166    1.090638    -0.038212
O     0.239209    -2.007854    0.178880
H     1.090224    -2.431488    0.390666
H     -0.460668    -2.597833    0.511733
O     -2.177865    -0.057142    0.217229
H     -2.650047    -0.069395    1.067849
H     -2.782235    -0.491423    -0.409223
O     0.318193    0.291425    1.976037
H     1.240970    0.370125    2.277285
H     -0.258502    0.329349    2.758867
N     -0.180772    -0.279535    -2.123633
H     -1.047840    0.076518    -2.534365
H     0.570939    0.157786    -2.662687
H     -0.149447    -1.275759    -2.356682
