26

Cr     -0.001257    0.001245    0.139249
C     0.030171    2.040558    -0.071089
O     0.043197    3.154817    -0.266823
C     2.045645    -0.025642    0.151660
O     3.175676    -0.033616    0.183792
C     -0.032827    -2.034344    -0.088920
O     -0.046210    -3.146609    -0.295952
C     -2.048587    0.026810    0.155437
O     -3.178621    0.031841    0.188658
C     0.004934    -0.028615    5.020290
C     -0.107126    1.171810    4.315044
C     -0.107711    1.143458    2.929370
N     0.001817    -0.010264    2.213141
C     0.112231    -1.173862    2.913281
C     0.114412    -1.219286    4.298243
H     0.006893    -0.035611    6.106268
H     -0.194773    2.123932    4.827425
H     -0.200300    2.066406    2.371628
H     0.204002    -2.091698    2.346859
H     0.201780    -2.177498    4.798434
C     -0.002096    0.003785    -1.981328
N     -0.001255    0.002405    -3.139967
C     0.000617    0.002989    -4.574098
H     -0.612000    -0.832242    -4.924401
H     1.031216    -0.110013    -4.921462
H     -0.416429    0.951765    -4.922606
