29

Cr     -0.001443    -0.000388    -0.005322
N     -0.230558    2.147618    0.386718
H     -1.193366    2.409331    0.609587
H     0.329004    2.486529    1.172979
H     0.018704    2.723024    -0.421320
N     2.158627    0.274298    -0.295498
H     2.435386    1.258411    -0.286629
H     2.722202    -0.173094    0.431469
H     2.497420    -0.084992    -1.191108
N     0.228613    -2.148538    -0.396631
H     1.192617    -2.409875    -0.614650
H     -0.024442    -2.724153    0.410083
H     -0.326946    -2.487590    -1.185667
N     -2.161704    -0.274698    0.281827
H     -2.440713    -1.258034    0.261716
H     -2.499299    0.075069    1.181660
H     -2.724812    0.182081    -0.439658
C     0.573034    -0.595075    3.542831
N     0.399846    -0.411660    2.409241
C     0.790584    -0.824989    4.966154
H     0.777537    0.127922    5.505214
H     1.759905    -1.309206    5.123448
H     0.001682    -1.470473    5.365893
C     -0.570333    0.595616    -3.554219
N     -0.397722    0.411311    -2.420686
C     -0.786839    0.826124    -4.977608
H     -0.773707    -0.126651    -5.516917
H     0.002598    1.471393    -5.376633
H     -1.755889    1.310685    -5.135472
