37

Cr     -0.009783    -0.006993    -0.002277
C     0.211129    1.990090    0.372902
N     0.352196    3.129833    0.566586
C     0.527743    4.527710    0.804351
H     1.558894    4.806270    0.572874
H     0.318727    4.741781    1.855748
H     -0.159852    5.093073    0.170589
C     1.967926    -0.433768    -0.293587
N     3.096613    -0.657213    -0.474073
C     4.481088    -0.932424    -0.695385
H     4.580130    -1.715039    -1.451490
H     4.935618    -1.264455    0.241538
H     4.977701    -0.021507    -1.039281
C     -0.296133    -2.017033    -0.345582
N     -0.476008    -3.152149    -0.531105
C     -0.696776    -4.545182    -0.760722
H     -1.470441    -4.668137    -1.522509
H     -1.021986    -5.013264    0.171992
H     0.233804    -5.008114    -1.098279
C     -2.013920    0.353406    0.302260
N     -3.150674    0.536605    0.473974
C     -4.545934    0.763057    0.683455
H     -4.688950    1.737105    1.157536
H     -4.942275    -0.023723    1.330474
H     -5.062584    0.739554    -0.279286
C     0.413060    -0.242920    1.975248
N     0.629389    -0.395520    3.109010
C     0.892706    -0.583396    4.500671
H     1.358946    -1.559595    4.654304
H     -0.048203    -0.529294    5.054106
H     1.565645    0.206009    4.845729
C     -0.464760    0.524782    -3.166243
N     -0.326148    0.318273    -2.035059
C     -0.642723    0.779525    -4.588585
H     0.327124    0.752652    -5.096225
H     -1.102275    1.761072    -4.742384
H     -1.289868    0.010100    -5.023154
