29

Cr     0.000396    0.000628    -0.001425
N     -0.297677    2.136462    0.361449
H     -1.299505    2.323568    0.441808
H     0.112871    2.512392    1.218830
H     0.023149    2.735192    -0.403163
N     2.132588    0.219116    0.426265
H     2.356697    1.202176    0.599841
H     2.451665    -0.275597    1.261750
H     2.756375    -0.060802    -0.334224
N     0.297942    -2.135631    -0.360168
H     1.300389    -2.329379    -0.412715
H     -0.047815    -2.733606    0.394175
H     -0.091241    -2.507274    -1.229256
N     -2.131258    -0.215140    -0.432923
H     -2.354628    -1.195182    -0.623725
H     -2.755946    0.051488    0.331583
H     -2.449792    0.293523    -1.260207
C     -0.256392    -0.268280    2.025463
N     -0.409864    -0.422513    3.172886
C     -0.602370    -0.614529    4.579972
H     0.027067    -1.440404    4.920682
H     -1.652967    -0.847538    4.770624
H     -0.326608    0.301493    5.108561
C     0.257057    0.268525    -2.028526
N     0.410079    0.420895    -3.176252
C     0.602031    0.609843    -4.583756
H     0.126298    -0.212051    -5.124848
H     1.672713    0.623717    -4.802530
H     0.151016    1.558671    -4.884982
