25

Cr     0.085792    -0.137748    -0.166430
O     0.344777    1.961755    -0.041782
H     -0.161368    2.329906    0.723551
S     1.908484    2.714604    -0.054667
H     1.698307    3.438946    -1.177236
O     2.143481    -0.487090    -0.112575
H     2.649135    0.345009    -0.256206
S     2.925643    -1.381279    1.168142
H     3.659392    -2.161304    0.340881
O     -0.379983    -2.186846    -0.097765
H     -0.155383    -2.783576    -0.836875
S     -0.409313    -3.122168    1.374976
H     -1.746889    -3.330693    1.354515
O     -1.918701    0.379638    -0.415066
H     -2.070949    0.684365    -1.348269
S     -3.271986    -0.608873    0.052992
H     -3.951113    0.388582    0.664010
O     0.011904    0.136840    2.239993
H     -0.182610    -0.653221    2.781824
S     -0.731830    1.513272    2.959763
H     0.330695    1.918187    3.696187
O     0.018649    -0.121228    -2.651602
H     0.766924    -0.221700    -3.271643
S     -1.238206    0.718741    -3.484083
H     -1.872143    -0.366578    -3.992229
