59

Cr     -0.004932    -0.010441    -0.073686
O     -0.116207    -0.008783    2.462936
H     0.684324    -0.048633    3.011458
H     -0.857888    0.010894    3.090887
C     -0.104830    5.013311    -0.068673
C     -0.378867    4.290826    -1.229518
C     -0.346033    2.900974    -1.182524
N     -0.057973    2.207797    -0.058173
C     0.204709    2.919659    1.063198
C     0.192625    4.309391    1.099212
H     -0.123433    6.098726    -0.073256
H     -0.614122    4.789189    -2.164113
H     -0.547108    2.307753    -2.064477
H     0.420742    2.340742    1.952542
H     0.412618    4.825219    2.027939
C     4.961546    0.118017    0.527228
C     4.225356    -0.993586    0.937046
C     2.848985    -0.999931    0.739021
N     2.179062    0.028729    0.171200
C     2.904300    1.101427    -0.220348
C     4.283407    1.183457    -0.065402
H     6.037767    0.153029    0.665735
H     4.706273    -1.848583    1.400355
H     2.250903    -1.852653    1.034460
H     2.347819    1.913324    -0.671419
H     4.809918    2.068976    -0.405559
C     0.009153    -5.032412    -0.104253
C     -0.316011    -4.329638    1.056805
C     -0.296557    -2.939380    1.031041
N     0.025932    -2.226472    -0.073652
C     0.340901    -2.918753    -1.192016
C     0.341718    -4.308501    -1.249092
H     0.004457    -6.118081    -0.115846
H     -0.585869    -4.847268    1.971274
H     -0.536059    -2.360033    1.913997
H     0.590960    -2.325969    -2.061650
H     0.600892    -4.805972    -2.177994
C     -5.001898    -0.050503    0.233255
C     -4.319815    -1.087526    -0.403827
C     -2.930790    -1.044840    -0.462331
N     -2.200825    -0.037451    0.066746
C     -2.872857    0.960617    0.682604
C     -4.259033    0.991142    0.788734
H     -6.085910    -0.053052    0.294139
H     -4.851081    -1.920947    -0.850921
H     -2.370892    -1.837589    -0.944410
H     -2.270634    1.761206    1.094077
H     -4.741221    1.822105    1.292783
C     0.181109    -0.024951    -5.453769
C     1.348198    -0.052425    -4.688970
C     1.237222    -0.036511    -3.301251
N     0.056939    0.003300    -2.648749
C     -1.061209    0.033649    -3.402919
C     -1.048568    0.021212    -4.795485
H     0.228776    -0.036159    -6.538164
H     2.327822    -0.085418    -5.155083
H     2.121699    -0.060661    -2.671258
H     -2.000805    0.074181    -2.858163
H     -1.983127    0.048087    -5.346783
