54

Cr     -0.041586    -0.047878    -0.117499
C     0.091199    4.808640    0.940483
C     0.977786    4.251482    0.018664
C     0.891903    2.891935    -0.262546
N     -0.012484    2.073875    0.319451
C     -0.870774    2.626875    1.206029
C     -0.852695    3.975937    1.542896
H     0.133987    5.865704    1.183833
H     1.726796    4.856917    -0.481022
H     1.565326    2.428589    -0.975097
H     -1.603623    1.957548    1.644944
H     -1.567808    4.360424    2.262734
C     4.954525    -0.163683    -0.036195
C     4.250733    -0.713397    -1.108480
C     2.861097    -0.657698    -1.102301
N     2.151643    -0.097573    -0.098354
C     2.843694    0.428445    0.936154
C     4.231994    0.416811    1.007439
H     6.039989    -0.188066    -0.013451
H     4.766382    -1.178706    -1.941854
H     2.284140    -1.077274    -1.918613
H     2.253586    0.877215    1.727384
H     4.730649    0.858630    1.863696
C     -0.080565    -4.995494    -0.635381
C     0.861796    -4.371374    0.182814
C     0.844307    -2.985494    0.288772
N     -0.043777    -2.202476    -0.362342
C     -0.950078    -2.818417    -1.152347
C     -1.002507    -4.198932    -1.314560
H     -0.092904    -6.075948    -0.742048
H     1.603358    -4.945007    0.728892
H     1.579848    -2.470921    0.898752
H     -1.654125    -2.173213    -1.665138
H     -1.754356    -4.635444    -1.963376
C     -5.009488    0.005376    0.122245
C     -4.256156    -0.801946    0.975033
C     -2.869523    -0.780516    0.870902
N     -2.211014    -0.009281    -0.022674
C     -2.949973    0.773112    -0.840760
C     -4.338911    0.808783    -0.800967
H     -6.093761    0.010766    0.177820
H     -4.729987    -1.438860    1.714393
H     -2.251938    -1.385514    1.523410
H     -2.398438    1.391061    -1.540280
H     -4.879853    1.456559    -1.482352
O     -0.020984    -0.404170    2.034760
H     -0.050265    0.338444    2.660504
H     0.457206    -1.128240    2.470261
C     -0.062769    0.265291    -2.125756
N     -0.058670    0.436952    -3.281585
C     -0.054580    0.645680    -4.695345
H     -0.927241    0.154072    -5.133077
H     0.855885    0.220160    -5.125133
H     -0.094452    1.717321    -4.906609
