55
03/24/2023 16:57, XYZ structure generated by mol3D Class, molSimplify
Cr     -0.000061    -0.000926    -0.000788
N     0.036357    2.118655    0.315580
C     -0.604134    4.258229    0.582873
N     0.772545    4.168795    0.613431
C     1.121361    2.873125    0.451370
C     -1.049923    2.977874    0.396901
H     2.139628    2.517025    0.427430
H     1.415191    4.941786    0.733527
H     -2.058314    2.605725    0.306155
H     -1.124584    5.197460    0.690791
N     2.594477    -0.048283    0.278833
C     4.822466    0.112982    -0.060448
N     4.571646    -0.207628    1.256567
C     3.227236    -0.293616    1.417609
C     3.589381    0.207842    -0.650716
H     2.759733    -0.539360    2.360474
H     5.269174    -0.358341    1.974303
H     3.355860    0.442442    -1.678994
H     5.823958    0.238200    -0.443000
N     -0.036527    -2.120526    -0.316920
C     0.603849    -4.260239    -0.583355
N     -0.772810    -4.170653    -0.614524
C     -1.121562    -2.874904    -0.452970
C     1.049698    -2.979882    -0.397551
H     -2.139793    -2.518672    -0.429559
H     -1.415489    -4.943605    -0.734691
H     2.058078    -2.607782    -0.306480
H     1.124239    -5.199557    -0.690802
N     -2.594413    0.046328    -0.280319
C     -4.822544    -0.111943    0.059496
N     -4.571585    0.207880    -1.257684
C     -3.227103    0.292084    -1.419047
C     -3.589456    -0.208172    0.649530
H     -2.759502    0.536930    -2.362097
H     -5.269069    0.359159    -1.975344
H     -3.356016    -0.442773    1.677825
H     -5.824112    -0.235796    0.442291
N     -0.300343    -0.335846    2.133061
C     -0.395653    -1.314756    4.160823
N     -0.770281    0.008514    4.258817
C     -0.698506    0.562577    3.028319
C     -0.108296    -1.515825    2.838929
H     -0.938372    1.594928    2.825884
H     -1.051212    0.486376    5.105790
H     0.218791    -2.421491    2.353766
H     -0.371735    -1.973829    5.014954
N     0.300318    0.334075    -2.134533
C     0.395951    1.312949    -4.162330
N     0.770732    -0.010286    -4.260215
C     0.698759    -0.564307    -3.029710
C     0.108316    1.514002    -2.840493
H     0.938713    -1.596620    -2.827184
H     1.051876    -0.488148    -5.107118
H     -0.218971    2.419646    -2.355420
H     0.372129    1.972001    -5.016481
