31

Cr     -0.035155    0.047747    0.017668
C     0.336949    2.045534    -0.333968
N     0.506122    3.180535    -0.527197
C     0.701421    4.578106    -0.764176
H     1.463980    4.708956    -1.535776
H     1.029518    5.052710    0.164264
H     -0.241876    5.021121    -1.092633
C     1.980720    -0.167414    -0.290057
N     3.124394    -0.309351    -0.460964
C     4.529679    -0.482335    -0.672816
H     4.704652    -1.444779    -1.159883
H     5.041288    -0.461439    0.292873
H     4.901992    0.328326    -1.303957
C     -0.434690    -1.931865    0.371705
N     -0.639842    -3.061778    0.568008
C     -0.891190    -4.450796    0.806836
H     -1.860059    -4.720512    0.379152
H     -0.903204    -4.631413    1.884794
H     -0.100428    -5.045377    0.342912
C     -2.059025    0.296111    0.327332
N     -3.196564    0.475601    0.494615
C     -4.593299    0.710286    0.698723
H     -4.755745    1.775534    0.879372
H     -4.932320    0.129757    1.560281
H     -5.139912    0.398083    -0.194884
S     0.327638    0.465870    2.450253
H     1.656146    0.446842    2.683630
H     0.079108    -0.685096    3.108219
S     -0.464185    -0.284045    -2.417684
H     -0.839040    -1.566563    -2.601637
H     0.727173    -0.422132    -3.034835
