39

Cr     0.001002    0.000953    -0.172317
O     -0.000632    0.002137    2.394073
H     0.756834    0.130317    2.988784
H     -0.759921    -0.116774    2.988407
C     0.001924    2.168477    0.042814
N     0.004494    3.320474    0.192758
C     0.009021    4.737977    0.387467
H     0.843292    5.172610    -0.168391
H     0.121198    4.951490    1.453194
H     -0.934406    5.152126    0.023789
C     2.159840    0.000535    -0.069652
N     3.320164    -0.000904    -0.026100
C     4.749742    -0.006899    0.022507
H     5.122608    -0.832258    -0.588783
H     5.070143    -0.137032    1.059070
H     5.124033    0.943228    -0.366247
C     -0.000139    -2.166764    0.043307
N     -0.003273    -3.318746    0.193340
C     -0.008595    -4.736335    0.387959
H     -0.843154    -5.170410    -0.167961
H     -0.120952    -4.949921    1.453674
H     0.934680    -5.150974    0.024366
C     -2.157996    0.000252    -0.067445
N     -3.318349    -0.000484    -0.024616
C     -4.748054    0.001590    0.019748
H     -5.130355    -0.613505    -0.798459
H     -5.105401    1.028529    -0.087548
H     -5.076097    -0.407593    0.978405
C     -0.000134    -0.000064    -5.401153
C     -0.036621    1.198988    -4.688918
C     -0.034097    1.150410    -3.298671
N     -0.001852    0.000371    -2.595529
C     0.030859    -1.149913    -3.298275
C     0.034866    -1.198930    -4.688506
H     0.001060    -0.000197    -6.486952
H     -0.066292    2.156479    -5.198321
H     -0.057974    2.064547    -2.713187
H     0.054139    -2.063839    -2.712432
H     0.064647    -2.156582    -5.197612
