18

Cr     -0.000765    0.000897    0.035743
C     -0.001702    2.255019    -0.011267
O     -0.002262    3.380472    -0.034622
C     2.679449    0.000617    0.059837
O     3.798936    -0.002668    -0.078846
C     0.001833    -2.253773    -0.012173
O     0.003559    -3.379244    -0.035336
C     -2.680161    -0.000176    0.060667
O     -3.799357    0.002804    -0.080125
O     -0.000193    -0.000313    2.113065
H     0.781595    0.042321    2.696871
H     -0.781606    -0.042949    2.697397
C     -0.001492    0.001615    -2.088246
N     -0.000985    0.001002    -3.246182
C     0.000513    -0.000981    -4.680879
H     -0.610018    -0.838694    -5.028429
H     1.031401    -0.111926    -5.027542
H     -0.418749    0.945980    -5.031250
