29

Cr     0.000038    0.000236    0.131697
C     0.083494    2.258642    0.172425
O     0.128768    3.382554    0.233266
C     2.708722    0.009947    -0.226531
O     3.816856    0.043567    -0.439459
C     -0.083422    -2.258778    0.172523
O     -0.128709    -3.382691    0.233541
C     -2.708522    -0.010029    -0.226469
O     -3.816866    -0.043561    -0.438616
O     -0.000127    -0.000110    -1.994771
C     0.775663    -0.817612    -2.843231
C     0.496064    -0.523193    -4.127788
C     -0.496381    0.523133    -4.127725
C     -0.776005    0.817378    -2.843141
H     1.437605    -1.515822    -2.355952
H     0.939328    -0.993571    -4.995286
H     -1.437893    1.515601    -2.355810
H     -0.939758    0.993472    -4.995183
C     0.000357    0.000249    4.987426
C     1.188144    0.189450    4.276660
C     1.150900    0.186256    2.889909
N     0.000276    -0.000018    2.191201
C     -1.150204    -0.186166    2.890200
C     -1.187545    -0.189084    4.276961
H     0.000549    0.000164    6.073275
H     2.134537    0.341208    4.784672
H     2.056558    0.339535    2.313842
H     -2.056051    -0.339325    2.314512
H     -2.133803    -0.340913    4.785339
