31

Cr     0.031663    -0.073750    -0.055771
P     -0.260784    2.352988    -0.525154
H     -0.852903    3.034638    0.564127
H     -1.178757    2.775762    -1.515248
P     1.472615    3.739310    -0.969408
H     1.566113    3.324464    -2.326659
P     3.243972    2.542126    -0.276239
H     2.941432    2.683397    1.106950
P     2.448271    0.426343    -0.370254
H     3.398532    -0.230796    0.447392
H     2.984323    0.029676    -1.617694
P     0.384649    -2.491253    0.396176
H     1.287843    -3.158046    -0.466308
H     -0.717377    -3.353772    0.190197
P     1.088018    -3.253673    2.409394
H     2.421862    -2.793482    2.230082
P     0.486185    -1.581050    3.785034
H     -0.911652    -1.814213    3.660328
P     0.468310    0.192476    2.380223
H     -0.411353    1.065498    3.065460
H     1.673306    0.817751    2.776574
P     -2.410545    -0.529571    0.232757
H     -3.181365    0.550536    0.721178
H     -2.836442    -1.499322    1.169966
P     -3.659830    -1.156800    -1.536398
H     -2.921441    -2.368104    -1.692599
P     -2.544824    0.144318    -3.016624
H     -2.722141    -0.714234    -4.133707
P     -0.437286    -0.421499    -2.488461
H     -0.226817    -1.716362    -3.018630
H     0.308614    0.313600    -3.437903
