19

Cr     0.037875    0.003504    -0.056926
S     0.470527    2.360034    -1.012082
H     1.359763    2.086570    -1.991599
H     1.374237    2.978613    -0.221020
S     2.502759    -0.381950    0.474210
H     2.736553    -1.510970    1.178553
H     2.876148    0.449619    1.470218
S     -0.342478    -2.430429    0.551611
H     -0.272648    -2.599428    1.888527
H     -1.659495    -2.721231    0.477735
S     -2.272622    0.418307    -1.071898
H     -3.206590    -0.235818    -0.348800
H     -2.705267    1.650768    -0.732013
S     -0.258594    1.120810    2.175440
H     -0.420419    0.177467    3.127589
H     -1.518381    1.597589    2.269027
O     0.448091    -0.770376    -1.932374
H     -0.054133    -0.573906    -2.746364
H     0.907735    -1.617789    -2.084446
