25

Cr     0.015901    -0.009465    0.028898
P     0.201526    2.573507    0.230622
H     0.017182    3.481685    -0.835838
H     -0.453260    3.257531    1.275354
O     1.768082    2.819653    0.762200
O     2.646705    2.221916    -0.252741
P     2.955389    0.623902    0.279595
H     3.926779    0.829026    1.291018
H     3.842926    0.346619    -0.786673
P     0.368465    -2.588049    0.314518
H     -0.569596    -3.593829    -0.009988
H     1.573572    -3.212427    -0.067378
O     0.599839    -2.721462    1.979442
O     -0.566714    -2.116936    2.623214
P     -0.338431    -0.444478    2.606545
H     -1.546307    -0.113601    3.254472
H     0.595800    -0.189090    3.635756
P     -2.918849    -0.160719    -0.606780
H     -3.784786    0.914813    -0.299706
H     -3.908394    -1.153457    -0.815697
O     -2.618709    0.394151    -2.197466
O     -1.736858    -0.604592    -2.816744
P     -0.171945    -0.069270    -2.560832
H     0.485165    -1.075445    -3.298362
H     -0.007168    1.039645    -3.420511
