31

Cr     0.000021    0.000114    -0.000387
C     -0.000931    2.095140    -0.001060
N     -0.000896    3.258154    -0.000821
C     -0.000114    4.689034    -0.001142
H     0.836466    5.047535    -0.605971
H     0.108758    5.044670    1.026676
H     -0.943021    5.049904    -0.419217
C     2.083300    0.000882    -0.000212
N     3.247356    0.000564    0.000099
C     4.678537    0.000316    -0.001893
H     5.036718    -0.836874    -0.605661
H     5.034957    -0.109155    1.025399
H     5.038687    0.943718    -0.418788
C     0.000930    -2.095313    -0.000981
N     0.000898    -3.258280    -0.000667
C     0.000072    -4.689235    -0.001112
H     -0.836448    -5.047775    -0.606002
H     -0.108851    -5.045025    1.026628
H     0.942972    -5.050242    -0.419062
C     -2.083223    -0.000135    -0.000081
N     -3.247314    -0.000094    -0.000155
C     -4.678422    0.000974    0.001922
H     -5.038597    0.991182    0.290317
H     -5.036156    -0.748677    0.711772
H     -5.035638    -0.244864    -1.001242
O     -0.001166    -0.000785    2.128021
H     0.780440    0.034488    2.704128
H     -0.783439    -0.031929    2.703512
O     0.001149    -0.000854    -2.127580
H     -0.780496    0.036194    -2.703497
H     0.783452    -0.033631    -2.702912
