22

Cr     -0.037318    -0.048589    0.200918
P     -0.528186    2.833738    -0.307506
H     -0.549884    4.007762    0.487481
H     0.290453    3.350276    -1.338917
H     -1.762440    3.057445    -0.961448
P     2.499943    0.288394    -0.425284
H     2.735637    1.289241    -1.389664
H     3.564585    0.586637    0.457177
H     3.083072    -0.801199    -1.103272
P     0.441673    -2.965423    0.494609
H     1.409785    -3.450355    -0.415677
H     0.792601    -3.814471    1.574751
H     -0.630266    -3.752895    0.012345
P     -2.622432    -0.456364    0.462404
H     -3.072443    -1.681013    -0.070386
H     -3.374378    -0.452204    1.660748
H     -3.426369    0.417433    -0.297325
P     0.323900    0.405681    2.746359
H     1.487007    1.088761    3.162256
H     -0.629447    1.190800    3.429760
H     0.385401    -0.680072    3.645947
Cl     -0.384206    -0.409949    -2.030260
