22

Cr     0.388526    -0.037725    -0.025220
S     0.817635    2.820675    -0.558609
H     1.640155    3.420133    0.328081
H     1.716400    2.858751    -1.564150
S     2.937251    -0.481752    -0.441730
H     2.997508    -1.818548    -0.629999
H     3.492302    -0.527600    0.789139
S     0.036245    -2.955903    0.433822
H     -1.240014    -3.380552    0.326316
H     0.170321    -3.363724    1.713333
S     -2.162043    0.422167    0.342041
H     -2.771832    -0.294454    -0.625929
H     -2.351541    1.609519    -0.275087
S     0.801426    0.322943    2.509431
H     0.335655    1.563236    2.774190
H     -0.246691    -0.304704    3.085704
C     0.114532    -0.375816    -2.118909
N     -0.008218    -0.558425    -3.257585
C     -0.149856    -0.785055    -4.666773
H     -0.203950    -1.861968    -4.845788
H     0.718133    -0.361797    -5.178727
H     -1.065212    -0.298268    -5.012616
