19

Cr     0.000467    0.000322    -0.000673
N     -0.074002    2.065802    0.072817
C     -0.088767    3.218117    0.086602
H     -0.103267    4.295215    0.100211
N     2.065978    -0.073668    0.072523
C     3.218298    -0.088149    0.086128
H     4.295402    -0.102409    0.099582
N     0.071253    -2.065640    -0.072351
C     0.083212    -3.217996    -0.085157
H     0.095172    -4.295139    -0.097873
N     -2.065531    0.070653    -0.072095
C     -3.217891    0.082345    -0.084751
H     -4.295038    0.094081    -0.097339
N     0.073958    0.073623    2.065218
C     0.088003    0.087575    3.217532
H     0.101863    0.101357    4.294634
N     -0.070590    -0.070544    -2.066305
C     -0.082752    -0.082613    -3.218674
H     -0.094890    -0.094673    -4.295826
