19

Cr     -0.011355    -0.012142    -0.076565
P     -0.475657    2.921387    -0.260949
H     -1.471068    3.463086    0.593304
H     0.555478    3.783980    0.193540
H     -0.823272    3.704475    -1.393643
P     2.568887    0.371054    -0.431450
H     3.113283    1.620783    -0.053990
H     3.472017    -0.432468    0.302859
H     3.197992    0.263069    -1.693930
P     0.459981    -2.910741    0.376767
H     1.802524    -3.371300    0.324018
H     0.156416    -3.551838    1.605870
H     -0.058583    -3.936408    -0.455835
P     -2.598863    -0.391933    0.253507
H     -3.141058    -1.632599    -0.155603
H     -3.251673    -0.303443    1.506090
H     -3.484961    0.429140    -0.482073
Cl     0.368420    0.371977    2.210099
Cl     -0.381989    -0.388303    -2.357392
