25

Cr     -0.084337    0.003659    -0.098848
N     -0.111620    2.569514    0.248449
H     -0.167754    3.027225    -0.668705
P     -0.234189    3.686931    1.393999
H     -0.131803    2.804748    2.526736
N     1.998782    0.240297    0.212521
H     2.195343    1.237936    0.349128
P     3.342475    -0.643167    0.287396
H     2.719903    -1.913051    0.064766
N     -0.120828    -2.574330    -0.425904
H     -0.124260    -3.027085    0.495562
P     0.019482    -3.700853    -1.562379
H     -0.001146    -2.819170    -2.697727
N     -2.182927    -0.262962    -0.408434
H     -2.348839    -1.268141    -0.534427
P     -3.551696    0.579946    -0.503699
H     -2.969575    1.870956    -0.291332
N     -0.419955    -0.337154    1.999334
H     -1.415974    -0.548074    2.119830
P     0.275595    -0.241915    3.449119
H     1.600333    0.063411    3.000653
N     0.110127    0.332566    -2.216463
H     -0.722141    -0.019874    -2.700761
P     1.134037    0.940119    -3.302661
H     2.158111    1.344789    -2.386831
