21

Cr     0.004888    0.005845    -0.020228
O     -0.002425    2.132464    0.032700
H     0.668480    2.713419    -0.366249
H     -0.701664    2.705962    0.392125
O     2.103114    -0.010936    -0.051251
H     2.667112    -0.008773    -0.844379
H     2.702625    -0.004931    0.716284
O     -0.003519    -2.122106    0.039710
H     0.686862    -2.703933    -0.323108
H     -0.723342    -2.694437    0.357958
O     -2.095531    -0.008914    -0.043794
H     -2.723498    -0.009173    0.700288
H     -2.629560    0.001377    -0.857605
C     0.022320    0.004313    2.088238
O     0.050309    -0.000416    3.219071
C     0.009368    0.005230    -2.127572
N     0.003656    0.002765    -3.289200
C     -0.007727    -0.001109    -4.723388
H     -0.618840    -0.838573    -5.069900
H     1.017267    -0.111445    -5.086631
H     -0.429891    0.943377    -5.076382
