29

Cr     -0.000874    0.001654    0.001029
C     0.471292    3.126186    -0.475327
N     0.307053    1.994289    -0.286819
C     0.680983    4.545330    -0.709561
H     0.351014    4.812139    -1.719315
H     1.747365    4.777961    -0.609692
H     0.120313    5.132806    0.025443
C     3.113183    -0.519439    -0.491492
N     1.981839    -0.325654    -0.329399
C     4.531670    -0.761510    -0.695997
H     5.013523    0.158725    -1.045508
H     4.674558    -1.545842    -1.446880
H     4.997418    -1.068994    0.246711
C     -0.473924    -3.122472    0.479549
N     -0.308528    -1.991012    0.289423
C     -0.681019    -4.541719    0.715479
H     0.284252    -5.060389    0.698560
H     -1.320921    -4.959860    -0.069323
H     -1.152339    -4.696081    1.691868
C     -3.116610    0.515625    0.487517
N     -1.983610    0.327760    0.329981
C     -4.536963    0.750970    0.686560
H     -4.862848    0.276828    1.619210
H     -5.108981    0.337230    -0.150601
H     -4.725763    1.828215    0.755029
C     0.277486    0.357869    1.946350
O     0.424259    0.581984    3.049114
C     -0.279380    -0.354561    -1.944246
O     -0.426393    -0.578843    -3.046959
