29

Cr     -0.005983    -0.001387    0.020475
P     -0.337648    2.463174    0.418653
H     -1.087663    2.831927    1.554728
H     0.743678    3.358706    0.565298
H     -1.063116    3.169558    -0.564996
P     2.435664    0.477026    0.420931
H     2.823126    1.097051    1.627645
H     3.372319    -0.579489    0.409732
H     3.072250    1.342251    -0.493122
P     0.284127    -2.472054    -0.377767
H     1.493030    -3.100578    -0.006690
H     -0.619417    -3.391232    0.196711
H     0.219528    -2.899531    -1.720195
P     -2.452172    -0.434295    -0.389999
H     -2.915204    -1.651493    -0.934693
H     -3.319032    -0.343178    0.718938
H     -3.118649    0.452255    -1.263589
C     -0.485188    -0.500932    3.152656
N     -0.336914    -0.302427    2.017440
C     -0.675132    -0.747464    4.573474
H     -1.745528    -0.813154    4.798770
H     -0.231428    0.062500    5.162075
H     -0.199145    -1.694998    4.850731
C     0.536411    0.464478    -3.107096
N     0.359734    0.279656    -1.973581
C     0.762192    0.694123    -4.525546
H     1.838199    0.695545    -4.733300
H     0.347479    1.666799    -4.813736
H     0.281611    -0.091092    -5.118704
