25

Cr     0.041618    -0.032325    0.001598
P     -0.356714    2.417215    0.470809
H     -1.659979    2.950840    0.386308
H     0.300331    3.311599    -0.402316
H     0.045243    2.981448    1.699842
P     2.523703    0.304194    -0.321712
H     3.253229    -0.601238    -1.120562
H     3.381332    0.372134    0.796006
H     2.900623    1.506606    -0.959042
P     0.442570    -2.483463    -0.464267
H     1.743250    -3.019188    -0.354610
H     0.064425    -3.046357    -1.701406
H     -0.231636    -3.378120    0.395453
P     -2.438940    -0.382913    0.318003
H     -2.795035    -1.491193    1.117495
H     -3.267693    -0.642374    -0.793618
H     -3.214451    0.604264    0.961535
P     0.477733    -0.327173    2.472630
H     -0.054162    0.599486    3.393847
H     1.798297    -0.409769    2.961622
H     -0.037695    -1.513621    3.039319
P     -0.396227    0.266913    -2.468158
H     -1.716474    0.387521    -2.950263
H     0.103790    -0.675887    -3.390809
H     0.150236    1.437471    -3.038863
