15

Cr     0.118448    -0.159770    0.093643
C     0.570741    1.787131    -0.162488
O     0.812777    2.882855    -0.308675
C     2.156020    -0.366671    0.437833
O     3.261328    -0.486342    0.631278
C     -0.314601    -2.169844    0.365949
O     -0.545487    -3.264439    0.515476
C     -1.863347    0.009488    -0.238571
O     -2.972659    0.119169    -0.432684
S     -0.286785    0.282795    2.445865
H     0.022589    1.543378    2.822446
H     -1.598228    0.334264    2.768429
S     0.445643    -0.493966    -2.288452
H     -0.707526    -0.621907    -2.981544
H     0.901090    0.603886    -2.931624
