67

Cr     -0.094292    -0.002116    0.040837
C     4.614201    -0.878106    0.226789
C     5.116391    0.356653    0.586259
C     4.233977    1.449592    0.749236
C     4.684975    2.762416    1.111222
C     3.801737    3.789988    1.247285
C     2.395290    3.586670    1.046662
C     1.454637    4.631923    1.184537
C     0.113469    4.374132    0.983029
C     -0.280242    3.067333    0.656176
N     0.576858    2.051622    0.522807
C     1.909612    2.297392    0.701006
C     2.851097    1.212536    0.532729
N     2.369179    -0.002434    0.162402
C     3.228390    -1.008334    0.022523
H     5.264751    -1.736322    0.096114
H     6.181504    0.499641    0.745835
H     5.747308    2.922889    1.269480
H     4.147654    4.784362    1.513204
H     1.796956    5.629411    1.445936
H     -0.634013    5.154424    1.076189
H     -1.326250    2.828934    0.495259
H     2.800670    -1.965589    -0.266115
C     -0.265927    -0.625670    4.438153
C     -0.473654    -1.988312    4.528992
C     -0.567999    -2.762074    3.349746
C     -0.782109    -4.181147    3.363025
C     -0.868901    -4.886036    2.200289
C     -0.747833    -4.230648    0.929276
C     -0.830064    -4.920662    -0.301435
C     -0.702769    -4.219598    -1.483915
C     -0.492923    -2.830753    -1.436652
N     -0.408301    -2.146430    -0.295208
C     -0.534284    -2.829921    0.880962
C     -0.444342    -2.086403    2.109883
N     -0.240257    -0.737232    2.034131
C     -0.152822    -0.038917    3.167638
H     -0.187661    -0.005816    5.324589
H     -0.564319    -2.473157    5.496946
H     -0.873583    -4.683075    4.321462
H     -1.031974    -5.959417    2.216496
H     -0.993322    -5.994687    -0.305206
H     -0.761107    -4.719187    -2.444811
H     -0.392875    -2.265861    -2.357565
H     0.015603    1.026918    3.056518
C     0.673459    0.657969    -4.249655
C     -0.578839    0.912707    -4.773132
C     -1.706799    0.932541    -3.921665
C     -3.030171    1.187995    -4.413368
C     -4.098872    1.196551    -3.569836
C     -3.928974    0.960643    -2.165183
C     -5.014033    0.967249    -1.258060
C     -4.784531    0.738461    0.083446
C     -3.464005    0.512845    0.513587
N     -2.419754    0.505217    -0.309374
C     -2.633669    0.713396    -1.637272
C     -1.500591    0.685718    -2.537710
N     -0.254281    0.420891    -2.041399
C     0.790130    0.415608    -2.873126
H     1.557822    0.641096    -4.877105
H     -0.708541    1.101389    -5.835204
H     -3.161354    1.372708    -5.475282
H     -5.099158    1.386284    -3.947617
H     -6.018882    1.152408    -1.627388
H     -5.596331    0.734879    0.802984
H     -3.254413    0.336936    1.566060
H     1.753393    0.210745    -2.417274
