24

Cr     -0.007839    0.015284    0.148945
N     -0.244959    2.180527    -0.074382
H     -1.199352    2.517109    0.075739
H     0.337454    2.776025    0.520017
H     -0.017278    2.435060    -1.040075
N     2.168258    0.271018    0.384659
H     2.496450    1.217749    0.177938
H     2.473014    0.092403    1.345499
H     2.744133    -0.339440    -0.201005
N     0.299585    -2.140222    -0.111625
H     1.153938    -2.519768    0.303948
H     -0.445732    -2.756492    0.222089
H     0.381072    -2.311618    -1.118213
N     -2.165815    -0.228198    -0.254885
H     -2.431374    -1.195342    -0.456440
H     -2.752137    0.042951    0.538930
H     -2.518706    0.311437    -1.049639
N     -0.340260    -0.079367    2.631075
H     -1.322177    -0.094073    2.917622
H     0.061240    -0.909937    3.073510
H     0.059835    0.708131    3.147405
O     0.370046    -0.004230    -2.457067
H     -0.306519    -0.045577    -3.154542
H     1.207134    0.056563    -2.949100
