25

Cr     -0.011053    -0.030828    -0.048911
P     0.461667    2.424531    -0.396232
H     -0.333234    3.380669    0.272060
H     1.735549    2.959191    -0.109480
H     0.314438    2.917033    -1.712711
P     2.461574    -0.383598    -0.440112
H     3.386086    0.679796    -0.370807
H     3.123866    -1.303990    0.400676
H     2.841202    -0.930197    -1.686369
P     -0.409415    -2.493281    0.360011
H     0.547244    -3.179456    1.139037
H     -1.581433    -2.960180    0.991038
H     -0.407130    -3.348433    -0.765250
P     -2.475442    0.275161    0.406617
H     -3.269389    -0.774133    0.915553
H     -2.886540    1.306524    1.278007
H     -3.273556    0.622982    -0.707135
P     0.357586    0.411906    2.468103
H     1.652103    0.714720    2.940901
H     -0.342660    1.504372    3.022427
H     0.000007    -0.580171    3.405608
N     -0.415245    -0.242537    -2.168388
H     -1.205265    0.328324    -2.482549
H     0.366452    0.016360    -2.774798
H     -0.661510    -1.201377    -2.426788
