51

Cr     0.000068    0.041205    0.000047
O     -0.003463    0.042916    2.530129
H     0.092244    0.823225    3.102352
H     -0.082888    -0.705916    3.145387
O     0.003790    0.046409    -2.529885
H     -0.091909    0.826489    -3.102445
H     0.082892    -0.702699    -3.144831
C     -0.000018    5.000215    0.001861
C     1.059575    4.287974    0.563658
C     1.022342    2.899029    0.542167
N     0.000236    2.198566    0.000792
C     -1.021852    2.899322    -0.540241
C     -1.059406    4.288282    -0.560673
H     -0.000339    6.085131    0.002574
H     1.909131    4.794437    1.008769
H     1.834503    2.315673    0.958985
H     -1.833890    2.316046    -0.957358
H     -1.909159    4.795079    -1.005086
C     5.008720    -0.105994    -0.005509
C     4.286200    -0.438415    1.140590
C     2.897573    -0.370265    1.103187
N     2.206390    0.005562    0.002965
C     2.917659    0.327548    -1.102077
C     4.306817    0.283911    -1.146975
H     6.093716    -0.146803    -0.008328
H     4.786939    -0.745963    2.052787
H     2.302995    -0.608242    1.975562
H     2.339021    0.618057    -1.970219
H     4.823840    0.554537    -2.061594
C     -0.000534    -4.919869    -0.001755
C     -0.963495    -4.208394    0.714101
C     -0.932726    -2.819152    0.683317
N     -0.000052    -2.120067    -0.000499
C     0.932485    -2.818809    -0.684837
C     0.962748    -4.208030    -0.716836
H     -0.000805    -6.005144    -0.002387
H     -1.732866    -4.718118    1.283973
H     -1.680115    -2.235446    1.208679
H     1.679997    -2.234867    -1.209808
H     1.731870    -4.717469    -1.287265
C     -5.008619    -0.104969    0.005681
C     -4.306633    0.284290    1.147312
C     -2.917468    0.327361    1.102477
N     -2.206257    0.005463    -0.002598
C     -2.897472    -0.369841    -1.102949
C     -4.286117    -0.437444    -1.140435
H     -6.093638    -0.145211    0.008332
H     -4.823508    0.554992    2.061979
H     -2.338774    0.617565    1.970659
H     -2.302882    -0.607668    -1.975373
H     -4.786842    -0.744506    -2.052789
