31

Cr     -0.042711    -0.059861    -0.018007
O     0.376702    2.089511    0.030674
H     0.981336    2.525508    0.656835
H     -0.310216    2.743134    -0.191154
O     1.979782    -0.472886    0.258983
H     2.663579    -0.337958    -0.420739
H     2.418296    -0.497946    1.127492
O     -0.327689    -2.259651    -0.019858
H     0.413703    -2.879570    -0.132901
H     -1.133499    -2.790139    0.104545
O     -2.062677    0.322682    -0.323397
H     -2.760386    0.252526    0.351094
H     -2.486714    0.313408    -1.199523
O     -0.377757    -0.047220    2.097383
C     -0.723666    1.044385    2.906359
C     -0.532642    0.726183    4.204128
C     -0.043103    -0.628596    4.245115
C     0.038870    -1.063809    2.970074
H     -1.081429    1.916565    2.384711
H     -0.724272    1.370378    5.051667
H     0.290299    -1.996343    2.493065
H     0.201976    -1.201472    5.129234
O     0.270437    -0.039211    -2.124560
C     -0.154846    -1.029872    -3.023142
C     0.114442    -0.637052    -4.285870
C     0.737784    0.660164    -4.208363
C     0.817434    0.993036    -2.903066
H     -0.574099    -1.910161    -2.564537
H     -0.096783    -1.200065    -5.184918
H     1.178668    1.843496    -2.349679
H     1.082168    1.261823    -5.038484
