19

Cr     0.000119    -0.000006    0.000083
N     0.000082    2.302453    0.000081
C     0.000005    3.455224    0.000065
H     -0.000072    4.532369    0.000047
N     2.304769    0.000036    0.000068
C     3.457555    0.000250    0.000145
H     4.534690    0.000432    0.000202
N     0.000072    -2.302463    0.000061
C     0.000465    -3.455234    0.000136
H     0.000779    -4.532378    0.000192
N     -2.304544    -0.000068    0.000055
C     -3.457330    -0.000159    0.000120
H     -4.534465    -0.000248    0.000167
N     0.000101    -0.000007    2.087119
C     0.000075    -0.000001    3.238097
H     0.000050    0.000005    4.316249
N     0.000120    -0.000008    -2.086950
C     0.000103    -0.000026    -3.237928
H     0.000085    -0.000044    -4.316080
