31

Cr     0.013064    0.078910    -0.015767
P     0.310614    2.486814    -0.476360
H     0.011989    3.040856    -1.741325
H     -0.423625    3.401464    0.313029
C     2.045680    3.005079    -0.207655
H     2.316269    4.046585    -0.373663
C     2.949653    2.096533    0.174402
H     3.992660    2.361714    0.339707
P     2.422710    0.364241    0.444081
H     2.975897    0.063128    1.708827
H     3.333269    -0.374832    -0.345531
P     -0.179057    -2.296882    0.632173
H     -1.165807    -3.135050    0.066826
H     0.935813    -3.140425    0.422854
C     -0.489414    -2.458484    2.429428
H     -0.609013    -3.454034    2.853911
C     -0.574722    -1.359395    3.186975
H     -0.761846    -1.418107    4.258018
P     -0.347318    0.285779    2.416565
H     0.606682    0.898785    3.259130
H     -1.483412    1.006671    2.850119
P     -2.363959    -0.100515    -0.663606
H     -3.206516    -1.084185    -0.099441
H     -3.202257    1.017939    -0.452302
C     -2.527559    -0.407627    -2.461206
H     -3.523862    -0.520444    -2.885777
C     -1.429067    -0.499052    -3.218896
H     -1.488999    -0.684735    -4.290124
P     0.217559    -0.282576    -2.448441
H     0.836636    0.667676    -3.290798
H     0.931031    -1.423167    -2.882452
