33

Cr     0.008486    -0.024441    0.096016
O     0.153162    2.143339    0.056111
H     0.702000    2.662893    -0.555311
H     -0.279741    2.777208    0.652999
O     2.399986    -0.113091    0.024155
H     2.981998    0.245198    -0.668617
H     2.969322    -0.705261    0.544998
O     -0.191838    -2.182937    0.050451
H     0.263520    -2.846558    0.596228
H     -0.970267    -2.620434    -0.334014
O     -2.400428    0.016996    -0.029097
H     -2.985118    0.496401    0.582585
H     -2.954989    -0.171566    -0.806700
O     0.001655    0.001400    -2.047080
C     0.757734    -0.815157    -2.899373
C     0.487452    -0.494150    -4.182082
C     -0.482499    0.572727    -4.163733
C     -0.754169    0.847903    -2.870679
H     1.389395    -1.537019    -2.407675
H     0.921758    -0.956978    -5.057753
H     -1.387101    1.552335    -2.355924
H     -0.916392    1.065605    -5.022948
C     0.032047    0.021386    4.968165
C     0.958909    0.774608    4.244581
C     0.921628    0.735753    2.856461
N     0.015781    -0.007121    2.175805
C     -0.879500    -0.737781    2.882898
C     -0.901857    -0.748894    4.271625
H     0.036974    0.035031    6.053850
H     1.704050    1.383839    4.744808
H     1.627602    1.301007    2.257901
H     -1.589541    -1.319595    2.304977
H     -1.638099    -1.350752    4.793861
