22

Cr     0.143185    -0.082603    -0.047103
S     -0.204869    2.492566    0.389052
H     0.887764    3.049538    -0.178331
H     -1.029534    2.824176    -0.626144
S     2.997490    0.410754    -0.448461
H     3.427967    -0.473122    -1.372441
H     3.779577    -0.077151    0.537335
S     0.538543    -2.652998    -0.497239
H     1.239341    -3.102693    0.566040
H     -0.606463    -3.273988    -0.136662
S     -2.730127    -0.574337    0.429857
H     -3.436232    -0.318307    -0.690468
H     -3.315123    0.406339    1.149178
S     0.575736    -0.485150    2.467534
H     0.403477    0.715070    3.064781
H     -0.587895    -0.998150    2.924594
C     -0.253266    0.275665    -3.221920
N     -0.140814    0.176028    -2.070530
C     -0.395255    0.399152    -4.662660
H     0.132492    1.293425    -5.013259
H     -1.455836    0.480763    -4.926394
H     0.029535    -0.484619    -5.152404
