73
03/24/2023 16:57, XYZ structure generated by mol3D Class, molSimplify
Cr     -0.176520    -0.181855    -0.032028
O     -0.523992    1.886761    0.037701
C     -0.792802    2.741870    0.924680
N     -1.891890    3.537286    0.919970
C     -1.790384    4.590458    1.935356
C     -0.728119    3.987329    2.886733
N     -0.029637    3.052075    1.997653
H     -2.747106    4.762276    2.431947
H     -1.445129    5.532385    1.491666
H     -1.198335    3.455661    3.723663
H     -0.049036    4.744576    3.283411
H     -2.450113    3.626596    0.082986
H     0.695554    2.414407    2.318702
O     1.875399    0.216131    -0.074344
C     2.757174    -0.238439    -0.856885
N     4.052074    0.182577    -0.869068
C     4.759364    -0.377016    -2.030388
C     3.879727    -1.605772    -2.358922
N     2.591447    -1.205567    -1.783449
H     5.785700    -0.650590    -1.779726
H     4.772558    0.339563    -2.860597
H     4.261448    -2.512831    -1.873583
H     3.801452    -1.787262    -3.432775
H     4.269512    1.104350    -0.514077
H     1.777131    -1.809875    -1.726870
O     0.151693    -2.185689    -0.461287
C     -0.087827    -3.190935    0.267458
N     -0.182881    -3.200753    1.614455
C     -0.654905    -4.503937    2.095315
C     -0.324814    -5.420390    0.891506
N     -0.285935    -4.446043    -0.204938
H     -1.733175    -4.478469    2.296942
H     -0.132393    -4.808788    3.004128
H     -1.088402    -6.181778    0.722140
H     0.647611    -5.913023    1.014417
H     -0.293660    -2.324162    2.121293
H     -0.030067    -4.685214    -1.152445
O     -2.139326    -0.506409    0.395308
C     -3.107701    -0.710600    -0.384054
N     -4.410791    -0.693928    0.001407
C     -5.274037    -1.197447    -1.073322
C     -4.372367    -0.977828    -2.312007
N     -3.035930    -0.979321    -1.708215
H     -6.209631    -0.638028    -1.131664
H     -5.504467    -2.260424    -0.928616
H     -4.584088    -0.015617    -2.795923
H     -4.479403    -1.774267    -3.051231
H     -4.641295    -0.794110    0.980527
H     -2.178292    -0.758405    -2.212580
O     -0.055537    -0.378179    2.440355
C     0.849140    -0.053675    3.232129
N     1.939983    0.733734    2.903416
C     2.922138    0.690798    4.002414
C     2.028869    0.334465    5.211596
N     0.928313    -0.373306    4.549511
H     3.428165    1.649983    4.127152
H     3.674595    -0.087113    3.824525
H     1.665691    1.233934    5.724328
H     2.539120    -0.302655    5.936559
H     2.248019    0.636784    1.936006
H     0.104094    -0.688233    5.043629
O     -0.331710    -0.066904    -2.457496
C     -0.156163    0.905237    -3.225511
N     -0.369746    0.898141    -4.574113
C     0.136569    2.130565    -5.187920
C     0.135526    3.088794    -3.974890
N     0.274040    2.147196    -2.858271
H     -0.513020    2.474793    -5.994912
H     1.150356    1.988862    -5.583644
H     -0.810237    3.642888    -3.910476
H     0.960420    3.803676    -4.007752
H     -0.368244    0.015192    -5.067009
H     0.116263    2.415840    -1.891410
