33

Cr     0.000673    0.002804    -0.004029
C     0.006029    2.156172    0.001862
N     0.011642    3.316907    0.005342
C     0.019544    4.748137    0.010550
H     0.857128    5.100876    -0.596075
H     0.130126    5.098706    1.039578
H     -0.922352    5.110566    -0.408288
C     2.153694    -0.003124    0.002273
N     3.314358    -0.009412    0.006749
C     4.745549    -0.017987    0.013364
H     5.098555    -0.854592    -0.594454
H     5.095109    -0.130562    1.042511
H     5.108868    0.924495    -0.403379
C     -0.001921    -2.150267    -0.002280
N     -0.004450    -3.310943    -0.000969
C     -0.008964    -4.742159    0.002151
H     -0.844952    -5.096048    -0.606003
H     -0.119851    -5.094561    1.030513
H     0.934277    -5.101816    -0.416051
C     -2.152616    0.002264    -0.000490
N     -3.313341    -0.001897    0.002679
C     -4.744509    -0.008665    0.006790
H     -5.103980    0.980302    0.301069
H     -5.094122    -0.759533    0.719513
H     -5.101469    -0.251820    -0.996969
P     -0.003111    0.006674    3.093605
H     1.113370    0.494193    3.814303
H     -0.985278    0.734246    3.807440
H     -0.144131    -1.203383    3.814242
P     -0.004469    0.011065    -3.088181
H     1.170229    0.332897    -3.809172
H     -0.321553    -1.164170    -3.810438
H     -0.871691    0.875861    -3.797692
