12

Cr     -0.048622    -0.048512    -0.018970
C     -0.194664    1.953703    -0.325986
O     -0.292370    3.062265    -0.533075
C     1.952869    -0.202916    -0.325544
O     3.060989    -0.305665    -0.532567
C     0.098606    -2.047383    0.299383
O     0.184123    -3.166337    0.448196
C     -2.046800    0.106973    0.298469
O     -3.165432    0.197511    0.446766
C     0.294702    0.294129    2.043385
O     0.480952    0.479994    3.143895
F     -0.324353    -0.323764    -1.729355
