37

Cr     0.026187    -0.027562    -0.012198
C     0.574928    3.109317    -0.476416
N     0.401430    1.973155    -0.332956
C     0.794239    4.537368    -0.661660
H     0.685512    4.801351    -1.718475
H     1.800511    4.808769    -0.326453
H     0.062332    5.104231    -0.076731
C     3.167709    -0.483258    0.530470
N     2.038026    -0.298037    0.354231
C     4.588901    -0.712146    0.751714
H     5.131864    0.237009    0.695977
H     4.980370    -1.387719    -0.016108
H     4.750930    -1.159984    1.737295
C     -0.491272    -3.166192    0.491329
N     -0.326588    -2.031345    0.328662
C     -0.701990    -4.592527    0.697191
H     0.253127    -5.084221    0.908990
H     -1.145189    -5.042131    -0.197062
H     -1.375280    -4.749545    1.546423
C     -3.125739    0.394612    -0.511251
N     -1.991084    0.218415    -0.359645
C     -4.552157    0.615279    -0.706617
H     -5.127367    0.047142    0.031321
H     -4.845270    0.295983    -1.712087
H     -4.781418    1.680105    -0.593943
C     -0.421820    0.461468    3.174244
N     -0.246285    0.270030    2.045986
C     -0.640463    0.696749    4.595599
H     -1.697940    0.556610    4.841316
H     -0.344902    1.717574    4.857878
H     -0.043609    -0.007092    5.184897
C     0.220898    -0.234382    -2.038523
N     0.339189    -0.361911    -3.189926
C     0.482678    -0.518009    -4.602363
H     -0.199875    -1.295971    -4.953088
H     1.513132    -0.801112    -4.831298
H     0.245908    0.428645    -5.094686
