42

Cr     -0.031202    -0.023333    -0.121215
O     0.001455    2.077760    -0.430575
C     -1.002033    2.964700    0.004856
C     -0.519096    4.223788    -0.001269
C     0.847702    4.160619    -0.455950
C     1.133531    2.867327    -0.705201
H     -1.959646    2.512538    0.205657
H     -1.067789    5.114275    0.274218
H     1.999413    2.334452    -1.060420
H     1.524884    4.993753    -0.585091
O     2.111698    -0.030459    0.002926
C     2.842641    0.337464    1.148068
C     4.145661    0.040859    0.962898
C     4.274851    -0.543369    -0.348839
C     3.044138    -0.573830    -0.898493
H     2.271503    0.816415    1.924594
H     4.943329    0.223353    1.670364
H     2.650530    -0.918056    -1.840573
H     5.186551    -0.890346    -0.815807
O     -0.006210    -2.106707    0.287850
C     1.046177    -2.864230    0.835450
C     0.783444    -4.176171    0.669230
C     -0.480511    -4.283868    -0.017081
C     -0.931055    -3.032367    -0.235485
H     1.854678    -2.297898    1.268786
H     1.409990    -4.993756    0.999319
H     -1.816911    -2.604011    -0.676032
H     -0.984863    -5.197310    -0.301663
O     -2.188799    -0.031474    -0.139010
C     -3.024833    -0.521805    0.879940
C     -4.313293    -0.421865    0.494461
C     -4.324195    0.156888    -0.826403
C     -3.041969    0.376195    -1.181880
H     -2.521194    -0.913868    1.747458
H     -5.175170    -0.724207    1.073841
H     -2.558223    0.808230    -2.043525
H     -5.195153    0.378212    -1.428254
O     -0.106569    0.393854    1.951138
H     -0.736574    1.045829    2.308334
H     -0.001416    -0.302201    2.625203
C     0.029020    -0.359893    -2.147495
O     0.047988    -0.542003    -3.264898
