15

Cr     0.019073    0.037004    -0.100991
C     -0.369458    2.286825    -0.402224
O     -0.566198    3.385540    -0.543257
C     2.579489    0.454385    -0.392093
O     3.683677    0.645526    -0.510009
C     0.386077    -2.202766    0.298366
O     0.559359    -3.295213    0.504300
C     -2.524028    -0.332990    0.387861
O     -3.615888    -0.481568    0.623761
C     0.306236    0.415439    2.100603
O     0.455305    0.606702    3.198506
N     -0.193888    -0.327994    -2.174931
H     -1.167760    -0.507125    -2.446848
H     0.111376    0.455040    -2.764494
H     0.336646    -1.138664    -2.514866
