25

Cr     -0.025532    -0.010961    -0.019916
P     0.363474    2.528376    0.382660
H     0.247515    3.375884    -0.744615
P     0.824853    3.862115    1.857689
H     0.896717    2.856845    2.870353
P     2.832429    -0.498938    0.369746
H     3.570728    0.617509    0.845802
P     4.393979    -1.748063    -0.066505
H     3.545479    -2.799833    -0.535008
P     -0.383592    -2.549830    -0.402098
H     0.391586    -3.413746    0.407814
P     -1.487204    -3.868639    -1.501461
H     -2.168198    -2.836661    -2.217520
P     -2.863524    0.525273    -0.425572
H     -3.643668    -0.547776    -0.935819
P     -4.371795    1.854893    -0.047716
H     -3.486548    2.859054    0.455680
P     -0.462845    -0.425583    2.501565
H     -1.752884    -0.137842    3.006320
P     0.497795    -1.163832    4.144331
H     1.716556    -1.389269    3.432395
P     0.420285    0.325300    -2.551297
H     1.636014    -0.179958    -3.068354
P     -0.459296    1.133926    -4.205228
H     -1.617796    1.560571    -3.484752
