49

Cr     -0.015679    0.048420    -0.102929
C     -0.869495    4.860874    0.632058
C     0.085585    4.460744    -0.303256
C     0.299916    3.103201    -0.505174
N     -0.368682    2.143881    0.173342
C     -1.282239    2.540404    1.088799
C     -1.564482    3.879360    1.336188
H     -1.062858    5.914383    0.810460
H     0.656982    5.184434    -0.874682
H     1.031051    2.762787    -1.228943
H     -1.771483    1.750974    1.644306
H     -2.309115    4.137492    2.081531
C     4.826709    0.679527    0.767438
C     3.858145    1.101919    1.675074
C     2.513763    0.891982    1.381832
N     2.100285    0.311366    0.233096
C     3.047052    -0.097883    -0.640030
C     4.407938    0.059763    -0.410222
H     5.882993    0.823251    0.973735
H     4.128439    1.577291    2.611990
H     1.739508    1.167037    2.087254
H     2.695152    -0.571723    -1.548943
H     5.119556    -0.295288    -1.148132
C     0.868328    -4.824167    -0.474204
C     1.052784    -4.167038    0.740608
C     0.778403    -2.805792    0.826007
N     0.349996    -2.079261    -0.230568
C     0.186203    -2.723837    -1.407910
C     0.420276    -4.084116    -1.568706
H     1.068981    -5.887203    -0.567886
H     1.398113    -4.695009    1.623182
H     0.879189    -2.262389    1.756489
H     -0.151016    -2.124256    -2.245685
H     0.260759    -4.545129    -2.537790
C     -4.827020    -0.830192    -0.769954
C     -4.138089    0.042333    -1.612821
C     -2.785288    0.262849    -1.386667
N     -2.103047    -0.319151    -0.374785
C     -2.780257    -1.156440    0.443544
C     -4.131203    -1.439111    0.273536
H     -5.883703    -1.028620    -0.922463
H     -4.633154    0.542634    -2.438283
H     -2.219000    0.927801    -2.028671
H     -2.214857    -1.578617    1.264367
H     -4.623589    -2.119132    0.960454
N     -0.453685    -0.362722    3.065869
C     -0.301380    -0.218260    1.912825
C     0.304174    0.397036    -1.935811
O     0.529078    0.643622    -3.043191
