15

Cr     -0.000059    0.000260    -0.000000
C     -0.000001    2.281022    -0.000002
O     0.000004    3.406249    0.000001
C     2.697927    -0.000004    0.000011
O     3.825352    0.000001    -0.000006
C     -0.000003    -2.281147    -0.000001
O     0.000007    -3.406369    0.000002
C     -2.697882    -0.000001    -0.000006
O     -3.825326    0.000001    0.000005
O     -0.000007    0.000023    2.062142
H     0.781884    0.037149    2.647798
H     -0.781887    -0.037178    2.647807
O     -0.000007    0.000023    -2.062142
H     -0.781885    0.037150    -2.647814
H     0.781884    -0.037178    -2.647793
