47

Cr     0.002201    0.001394    -0.005013
C     -0.011686    2.071310    -0.005906
N     -0.010697    3.235988    -0.004717
C     -0.001436    4.664831    -0.001863
H     0.834291    5.022328    -0.608450
H     0.114171    5.018702    1.025691
H     -0.942584    5.036269    -0.414547
C     2.075742    0.020607    0.013295
N     3.242445    0.021251    0.015135
C     4.672322    0.011576    0.012487
H     5.027339    -0.825111    -0.594605
H     5.030565    -0.106511    1.038265
H     5.042615    0.954056    -0.398230
C     0.014907    -2.068242    -0.003416
N     0.012359    -3.232845    -0.002447
C     0.001286    -4.661643    -0.001314
H     -0.834833    -5.017197    -0.608512
H     -0.114828    -5.016561    1.025816
H     0.942191    -5.033470    -0.414246
C     -2.071954    -0.018660    -0.021560
N     -3.238663    -0.020002    -0.020640
C     -4.668569    -0.012140    -0.015435
H     -5.026432    0.980631    0.268871
H     -5.032081    -0.757348    0.696553
H     -5.031013    -0.260248    -1.016174
C     -0.044562    0.009893    5.032947
C     1.155634    -0.035607    4.325945
C     1.122549    -0.039239    2.936794
N     -0.020209    0.002913    2.213038
C     -1.175921    0.048641    2.916303
C     -1.232319    0.051593    4.304920
H     -0.054181    0.015552    6.118657
H     2.111852    -0.065107    4.837309
H     2.043576    -0.074753    2.374083
H     -2.088458    0.087714    2.340076
H     -2.197146    0.088538    4.799620
C     0.055774    0.001519    -5.040212
C     -1.143688    0.080860    -4.334899
C     -1.112702    0.081031    -2.945634
N     0.027005    -0.001074    -2.220595
C     1.181911    -0.080783    -2.922108
C     1.240562    -0.078750    -4.310600
H     0.067454    0.005107    -6.125938
H     -2.097275    0.146048    -4.847836
H     -2.032352    0.151916    -2.383789
H     2.092154    -0.146665    -2.344621
H     2.205033    -0.137815    -4.803833
