25

Cr     -0.005937    0.089781    -0.002443
O     0.025656    2.222032    0.003950
H     0.335332    2.797259    -0.716832
H     -0.250002    2.803579    0.733391
O     2.043637    -0.225020    0.383247
H     2.701398    -0.216053    -0.332168
H     2.496860    0.073789    1.189668
O     -0.006284    -2.087872    -0.004692
H     0.658149    -2.660338    0.412917
H     -0.695414    -2.658096    -0.383092
O     -2.058500    -0.211947    -0.383628
H     -2.720561    -0.183949    0.327337
H     -2.503914    0.072882    -1.199483
C     -0.354821    0.095926    2.088910
N     -0.515621    0.057281    3.240204
C     -0.702989    -0.001460    4.659970
H     -0.151929    -0.858659    5.055040
H     -1.768283    -0.111827    4.876277
H     -0.325841    0.921612    5.107129
C     0.344568    0.094069    -2.094570
N     0.509014    0.055260    -3.245333
C     0.701469    -0.005404    -4.664515
H     0.150843    -0.862964    -5.059284
H     1.767469    -0.116998    -4.878024
H     0.325703    0.917136    -5.113974
