23

Cr     -0.008624    -0.014443    0.200735
P     -0.494191    2.831482    -0.368311
H     -0.520609    3.992266    0.444476
H     0.339899    3.357942    -1.381959
H     -1.720752    3.065669    -1.032389
P     2.520066    0.292946    -0.523585
H     2.744407    1.283460    -1.501718
H     3.608766    0.588206    0.329355
H     3.079939    -0.805747    -1.207208
P     0.435900    -2.922042    0.437294
H     1.393391    -3.417823    -0.477994
H     0.797275    -3.755943    1.524819
H     -0.644894    -3.710571    -0.022370
P     -2.614042    -0.420531    0.398506
H     -3.066177    -1.640880    -0.143416
H     -3.378475    -0.420370    1.588408
H     -3.411892    0.457026    -0.364052
P     0.367819    0.434699    2.758806
H     1.553380    1.076820    3.176415
H     -0.557579    1.249547    3.445713
H     0.393714    -0.653072    3.657606
C     -0.319427    -0.337492    -1.767623
N     -0.504546    -0.519542    -2.908900
