37

Cr     0.001569    -0.001078    0.002334
C     0.338717    2.047856    0.298879
N     0.522828    3.183954    0.463583
C     0.746307    4.581070    0.664980
H     1.403331    4.952312    -0.125793
H     1.221501    4.732385    1.637296
H     -0.209408    5.109456    0.629832
C     2.007471    -0.301649    -0.225831
N     3.152748    -0.472328    -0.357700
C     4.556875    -0.681163    -0.518188
H     4.723253    -1.458379    -1.268331
H     4.988842    -0.992922    0.435963
H     5.025301    0.250157    -0.846500
C     -0.336723    -2.049520    -0.296102
N     -0.523829    -3.184800    -0.463036
C     -0.755609    -4.579872    -0.669053
H     -1.739792    -4.721652    -1.121787
H     -0.711978    -5.094047    0.294384
H     0.019238    -4.976036    -1.330318
C     -2.004245    0.298655    0.232291
N     -3.149273    0.468076    0.367934
C     -4.552658    0.675305    0.536170
H     -4.720311    1.648241    1.005111
H     -4.960570    -0.113075    1.173771
H     -5.043434    0.649140    -0.439906
C     0.489268    -0.512833    3.123714
N     0.348795    -0.334006    1.987406
C     0.669288    -0.737759    4.551102
H     1.314059    0.041391    4.971369
H     1.140839    -1.711996    4.717809
H     -0.298065    -0.715628    5.063012
C     -0.488127    0.516018    -3.117784
N     -0.346090    0.332917    -1.982355
C     -0.670321    0.746000    -4.544028
H     0.274135    1.060676    -4.999632
H     -1.424075    1.523566    -4.705595
H     -1.006897    -0.177525    -5.027266
