57

Cr     0.041139    0.003106    0.125011
O     0.077250    2.197919    0.073715
C     -1.022314    3.065729    0.172355
C     -0.597292    4.341190    0.047556
C     0.831840    4.304310    -0.139116
C     1.208164    3.008269    -0.120044
H     -1.973761    2.581856    0.326740
H     -1.218641    5.225481    0.083285
H     2.140164    2.478916    -0.229480
H     1.488342    5.153760    -0.273256
O     2.496255    0.004736    0.068341
C     3.379408    -0.149319    1.137697
C     4.655079    -0.122451    0.689525
C     4.596295    0.059775    -0.737482
C     3.288787    0.130748    -1.073883
H     2.922058    -0.251769    2.109417
H     5.545690    -0.217527    1.295589
H     2.746722    0.252781    -1.997932
H     5.433736    0.126620    -1.417860
O     0.065536    -2.192981    0.080736
C     1.185425    -3.015634    0.280695
C     0.806368    -4.309659    0.222149
C     -0.613665    -4.332115    -0.024445
C     -1.030010    -3.050563    -0.107264
H     2.114947    -2.495079    0.442816
H     1.456593    -5.165774    0.339602
H     -1.972322    -2.559695    -0.290610
H     -1.236339    -5.209983    -0.125824
O     -2.448180    0.005514    0.004269
C     -3.399707    0.254920    0.993115
C     -4.643950    0.171106    0.468808
C     -4.492700    -0.148316    -0.925857
C     -3.165269    -0.238138    -1.167363
H     -3.015820    0.453021    1.981232
H     -5.573391    0.314795    1.002419
H     -2.565502    -0.436417    -2.040844
H     -5.285208    -0.288647    -1.647798
O     0.056307    -0.004563    -2.029461
C     -0.339118    1.046962    -2.873809
C     -0.232310    0.650600    -4.158489
C     0.253204    -0.707752    -4.153641
C     0.415726    -1.075551    -2.866036
H     -0.648504    1.948928    -2.371642
H     -0.468779    1.250079    -5.026623
H     0.750541    -1.964470    -2.357426
H     0.455223    -1.324806    -5.018135
C     -0.320591    0.029262    5.004334
C     -0.757712    -1.069534    4.262586
C     -0.630264    -1.044646    2.879773
N     -0.097785    0.010357    2.215176
C     0.328268    1.072700    2.942534
C     0.232583    1.117610    4.327311
H     -0.407133    0.037448    6.086659
H     -1.192427    -1.939666    4.742759
H     -0.964553    -1.880655    2.278102
H     0.755404    1.899031    2.388303
H     0.585096    1.994829    4.859133
