24

Cr     0.031341    0.034505    0.002740
P     -0.417605    2.607605    0.411323
H     -1.654155    3.003122    0.961815
H     0.458938    3.319401    1.255506
H     -0.385553    3.442126    -0.724824
P     2.997419    0.470892    0.435068
H     3.455769    1.668359    1.030182
H     3.656999    -0.428500    1.303826
H     3.942441    0.420957    -0.616653
P     0.403085    -2.567134    -0.313196
H     1.667810    -3.121677    -0.027425
H     -0.418002    -3.483050    0.376056
H     0.228605    -3.029182    -1.633178
P     -2.904883    -0.374604    -0.639768
H     -3.361771    -1.593102    -1.192439
H     -3.793199    -0.331385    0.459177
H     -3.632983    0.492609    -1.487473
P     -0.323403    -0.356009    2.568295
H     0.198634    0.605517    3.457305
H     -1.646080    -0.439933    3.048140
H     0.217341    -1.525455    3.139854
O     0.368529    0.272889    -2.056558
H     -0.325591    0.424757    -2.720710
H     1.224648    0.500808    -2.457982
