31

Cr     0.065272    0.053889    0.030502
O     -0.273503    2.141049    -0.049558
H     0.366494    2.836725    -0.281467
H     -1.146681    2.427206    -0.371172
O     2.435621    0.116709    0.026948
H     3.038120    0.729320    -0.430349
H     2.973715    -0.280651    0.734608
O     -0.046377    -2.060004    0.015856
H     0.300716    -2.622344    -0.700824
H     -0.817466    -2.522675    0.390189
O     -2.394855    0.096860    0.032422
H     -2.944604    0.364514    0.791090
H     -3.004584    -0.390148    -0.549883
O     0.087458    0.036243    2.135251
C     -0.316014    1.075849    2.991625
C     -0.203368    0.668811    4.271842
C     0.295165    -0.684565    4.253822
C     0.461454    -1.038029    2.963450
H     -0.599807    1.988486    2.495011
H     -0.439461    1.257983    5.147402
H     0.798205    -1.923156    2.449214
H     0.504603    -1.308220    5.112381
O     0.086957    -0.011987    -2.096198
C     -0.940221    0.371224    -2.972675
C     -0.563755    0.124301    -4.243744
C     0.760473    -0.443527    -4.196953
C     1.125066    -0.515533    -2.900123
H     -1.825040    0.772278    -2.506432
H     -1.151883    0.320823    -5.130018
H     2.008585    -0.831445    -2.369028
H     1.359898    -0.750157    -5.043190
