37

Cr     0.000041    -0.002601    0.000232
C     0.508398    3.162664    -0.475113
N     0.330714    2.031701    -0.300939
C     0.729036    4.585139    -0.694185
H     0.660639    4.815855    -1.762129
H     1.718595    4.874152    -0.325832
H     -0.031169    5.162541    -0.157348
C     3.135341    -0.452782    0.564919
N     2.002364    -0.285612    0.392871
C     4.560901    -0.660096    0.784384
H     5.078541    0.304610    0.801104
H     4.980536    -1.273242    -0.019561
H     4.724200    -1.165679    1.741516
C     -0.512556    -3.167322    0.472321
N     -0.331793    -2.036415    0.300966
C     -0.740711    -4.588757    0.690066
H     0.184511    -5.070246    1.022889
H     -1.080467    -5.063028    -0.236173
H     -1.506813    -4.724924    1.460779
C     -3.134795    0.449143    -0.565588
N     -2.002142    0.280580    -0.392784
C     -4.559615    0.661378    -0.785228
H     -5.141173    0.058003    -0.080703
H     -4.830313    0.376511    -1.806862
H     -4.806672    1.717167    -0.633263
C     -0.395643    0.502050    3.153387
N     -0.224620    0.316757    2.023094
C     -0.607322    0.734726    4.576200
H     -1.647495    0.521113    4.842076
H     -0.386273    1.779112    4.819533
H     0.051532    0.087828    5.164370
C     0.401573    -0.503619    -3.152779
N     0.226144    -0.321212    -2.022689
C     0.619889    -0.731731    -4.575325
H     1.677142    -0.590297    -4.821335
H     0.019777    -0.030365    -5.163990
H     0.327828    -1.753674    -4.838196
