27

Cr     0.075577    -0.076806    -0.063571
P     -0.330465    2.858231    0.466080
H     -1.634997    3.404688    0.469345
H     0.135860    3.510573    1.631223
H     0.232015    3.753926    -0.472690
P     2.679121    0.310416    -0.444257
H     3.209507    1.610075    -0.305146
H     3.614491    -0.404021    0.332828
H     3.163641    -0.001029    -1.731178
P     0.524562    -3.016711    -0.546870
H     1.763934    -3.643669    -0.278910
H     -0.299635    -3.991518    0.062511
H     0.381538    -3.471936    -1.877932
P     -2.527144    -0.499602    0.284237
H     -3.084862    -1.661073    -0.288999
H     -3.074980    -0.597891    1.580306
H     -3.397245    0.468310    -0.258130
P     0.464150    -0.442679    2.487763
H     1.730801    -0.146007    3.030914
H     -0.349660    0.287241    3.377786
H     0.282194    -1.741035    3.006138
C     -0.435883    0.432069    -3.212217
N     -0.251843    0.246383    -2.081175
C     -0.665736    0.664573    -4.628939
H     -0.017180    0.010978    -5.222848
H     -0.445102    1.709343    -4.874354
H     -1.711821    0.451177    -4.875185
