24

Cr     0.125427    -0.128523    0.158860
N     0.540035    2.078339    -0.199343
H     -0.257962    2.694479    -0.047435
H     0.744750    2.102201    -1.199448
H     1.332469    2.503350    0.281138
N     2.566822    -0.577387    0.444396
H     2.937487    -1.341338    1.009662
H     3.143854    0.234467    0.664019
H     2.763145    -0.808043    -0.530851
N     -0.234602    -2.362445    0.433069
H     -1.114951    -2.667666    0.846267
H     0.509412    -2.852601    0.927846
H     -0.219525    -2.695866    -0.531527
N     -2.281637    0.220063    -0.374315
H     -2.768784    1.083772    -0.135734
H     -2.919078    -0.537464    -0.129835
H     -2.194102    0.202283    -1.391296
N     -0.199887    0.214635    2.273488
C     -0.370706    0.394400    3.404979
C     -0.586329    0.620566    4.829072
H     0.342130    0.958647    5.299968
H     -1.357150    1.383865    4.974865
H     -0.910775    -0.307320    5.310565
F     0.409953    -0.412417    -1.595157
