9

Cr     0.000015    0.000055    0.000021
Cl     0.000018    2.348027    -0.001720
Cl     2.347991    0.000041    -0.000455
Cl     0.000012    -2.347926    0.001605
Cl     -2.347963    0.000066    0.000461
C     0.000038    0.000135    2.083825
O     0.000014    0.000050    3.219211
C     -0.000053    -0.000190    -2.083781
O     -0.000072    -0.000259    -3.219167
