19

Cr     0.004080    0.015670    -0.005535
N     0.292509    2.082168    -0.304155
H     -0.284628    2.907227    -0.540292
N     1.536299    2.385464    -0.149574
N     2.375990    1.543590    0.141235
N     2.072382    0.299827    0.293170
H     2.897157    -0.278542    0.527416
N     -0.097064    -1.985886    0.650046
H     0.026178    -2.859730    0.098073
N     -0.269059    -2.267170    1.839799
N     -0.466339    -1.064586    2.704371
N     -0.376782    -0.006742    2.073598
H     -0.514511    0.796770    2.720118
N     -1.997421    -0.082957    -0.660440
H     -2.870744    0.041229    -0.107829
N     -2.279651    -0.255530    -1.849820
N     -1.077310    -0.453513    -2.715349
N     -0.019250    -0.364837    -2.084929
H     0.783953    -0.502746    -2.731804
