31

Cr     0.000007    -0.000188    0.000173
O     -0.000120    -0.000379    2.017675
H     0.787747    0.039293    2.594611
H     -0.788267    -0.037601    2.594426
O     0.000117    -0.000220    -2.017709
H     -0.788330    0.024032    -2.594716
H     0.788792    -0.022412    -2.594522
C     0.012973    2.105315    -0.000278
N     0.008765    3.262818    -0.000430
C     0.002171    4.699955    0.000419
H     0.839090    5.052786    -0.608830
H     0.107770    5.048076    1.031720
H     -0.945799    5.044473    -0.422449
C     2.103303    0.010346    0.000201
N     3.261363    0.007875    -0.000027
C     4.699731    0.001714    -0.000635
H     5.043957    -0.839953    -0.608329
H     5.046905    -0.108248    1.030776
H     5.053174    0.946988    -0.422163
C     -0.012970    -2.105550    -0.000095
N     -0.008756    -3.262809    -0.000546
C     -0.002186    -4.700044    0.000363
H     -0.839148    -5.052870    -0.608828
H     -0.107739    -5.048040    1.031714
H     0.945837    -5.044546    -0.422389
C     -2.103204    -0.010877    0.000312
N     -3.261453    -0.008579    0.000735
C     -4.699716    -0.001212    -0.000268
H     -5.050436    -0.609037    -0.839260
H     -5.042796    1.031605    -0.107723
H     -5.050781    -0.422710    0.946069
