17

Cr     -0.029847    -0.037971    0.182078
S     -0.392910    2.458583    0.610166
H     0.816002    2.958797    0.950909
H     -0.343614    2.892338    -0.669976
S     2.479949    0.366030    -0.163700
H     2.465851    0.378764    -1.516069
H     3.054705    -0.854388    -0.067592
S     0.333316    -2.540506    -0.210959
H     -0.627784    -3.168947    0.502643
H     -0.297461    -2.654022    -1.401556
S     -2.531015    -0.467449    0.565990
H     -3.015369    0.685392    1.081409
H     -2.933269    -0.197487    -0.697068
S     0.384899    -0.515926    2.744348
H     1.456062    0.228761    3.097492
H     -0.503386    0.249085    3.416730
F     -0.304007    0.221985    -1.515051
