20

Cr     0.003733    0.006191    -0.031495
O     0.299412    1.966158    -0.295620
H     1.168781    2.394158    -0.449478
H     -0.396459    2.653380    -0.376604
O     1.969541    -0.296117    -0.269184
H     2.472541    -0.470608    -1.093437
H     2.611776    -0.310551    0.473753
O     -0.277341    -1.942427    0.291581
H     0.410487    -2.642626    0.301320
H     -1.151007    -2.372358    0.414430
O     -1.953418    0.306849    0.265469
H     -2.306946    0.455972    1.169331
H     -2.710192    0.371574    -0.356343
O     0.293173    0.281099    1.951605
H     0.473100    1.148052    2.374823
H     0.290042    -0.403003    2.655663
N     -0.255004    -0.245086    -2.083113
H     -1.221567    -0.097704    -2.405128
H     0.306260    0.396312    -2.660763
H     -0.026805    -1.197896    -2.399438
