19

Cr     -0.147708    -0.068751    0.129069
S     0.164787    2.438118    -0.226225
H     0.871061    2.907954    0.828667
H     1.166081    2.597128    -1.122298
S     2.309801    -0.482160    0.698613
H     2.675846    -1.622609    0.068207
H     3.055276    0.331179    -0.084673
S     -0.713661    -2.545350    0.535496
H     -0.108654    -2.896506    1.695265
H     0.092837    -3.275985    -0.269821
S     -2.679731    0.287795    -0.164937
H     -3.132323    -0.781321    -0.862451
H     -2.833736    1.182255    -1.169414
S     -0.603378    0.229000    2.643566
H     0.456764    0.897980    3.154666
H     -1.480379    1.255305    2.751301
S     0.170975    -0.619294    -2.345984
H     -0.599653    0.242259    -3.050012
H     1.346565    -0.071380    -2.731240
