24

Cr     0.147057    0.150530    0.069976
N     -0.099252    2.242449    0.385489
H     -1.081831    2.517375    0.461503
H     0.266244    2.752347    -0.425367
H     0.355935    2.631158    1.215357
N     2.239326    0.368316    0.419557
H     2.504605    1.338590    0.606983
H     2.752938    0.116069    -0.430780
H     2.635456    -0.180049    1.187348
N     0.400655    -1.947694    -0.215089
H     0.243698    -2.171260    -1.203196
H     -0.207644    -2.560147    0.334542
H     1.354475    -2.263911    -0.020985
N     -1.939868    -0.068256    -0.288835
H     -2.206640    -1.041800    -0.455669
H     -2.196697    0.431406    -1.146525
H     -2.564370    0.263294    0.450778
N     -0.187089    -0.172425    2.158991
C     -0.360758    -0.350716    3.292948
C     -0.577996    -0.573779    4.713252
H     0.209828    -1.222803    5.112406
H     -0.558843    0.382964    5.247402
H     -1.550853    -1.053256    4.870444
F     0.421649    0.411581    -1.617307
