37

Cr     -0.171724    -0.013808    0.177470
N     -0.465240    2.045779    -0.338802
H     -1.463193    2.188316    -0.503433
N     -0.155624    2.983556    0.736270
H     0.725087    3.474554    0.545629
H     -0.870734    3.709607    0.870210
H     -0.074114    2.367035    1.603053
N     1.953843    0.090386    0.334393
H     2.476583    0.915212    0.035394
N     2.685341    -1.055610    -0.186799
H     1.990884    -1.862316    -0.091230
H     2.956521    -0.971693    -1.175026
H     3.542689    -1.256270    0.346297
N     0.343869    -2.073177    0.470658
H     0.508759    -2.216088    1.468511
N     -0.730989    -3.010911    0.160627
H     -0.539716    -3.502432    -0.719678
H     -0.865640    -3.736584    0.875991
H     -1.597791    -2.394427    0.078254
N     -2.146350    -0.678206    0.144180
H     -2.778014    -0.528649    0.933056
N     -2.888604    -0.316616    -1.054777
H     -2.093307    -0.180455    -1.761587
H     -3.536534    -1.054293    -1.364014
H     -3.439511    0.548172    -0.970491
N     -0.139386    0.650342    2.151654
H     -0.928399    0.500060    2.782979
N     1.059482    0.289232    2.894355
H     1.766753    0.153148    2.099432
H     1.368012    1.027000    3.542487
H     0.975321    -0.575640    3.445163
N     -0.328774    -0.117708    -1.948547
H     -0.029392    -0.942572    -2.470995
N     0.192773    1.028232    -2.679956
H     0.097329    1.834981    -1.985509
H     1.180940    0.944021    -2.951258
H     -0.340243    1.229110    -3.537309
