15

Cr     -0.202094    0.027215    -0.031754
S     0.217374    2.525838    -0.355002
H     0.960752    2.830653    0.729158
H     1.260629    2.520781    -1.210935
S     2.311812    -0.316094    0.405075
H     2.332323    -1.056922    1.532416
H     2.618104    -1.339047    -0.419290
S     -0.794645    -2.449082    0.248302
H     -0.157172    -2.788573    1.387789
H     0.089396    -3.059591    -0.567523
S     -2.689603    0.413197    -0.472716
H     -2.916404    1.457188    0.352358
H     -2.630673    1.170125    -1.588967
F     -0.465027    0.307266    1.685011
F     0.080314    -0.256855    -1.745447
