27

Cr     -0.000310    -0.000637    -0.041392
F     -0.281544    1.862821    -0.040820
F     1.832408    0.275233    -0.057664
F     0.281062    -1.864246    -0.041130
F     -1.833066    -0.276623    -0.026987
C     0.000241    0.000047    4.823567
C     -0.247674    1.176439    4.115063
C     -0.235263    1.136016    2.721757
N     0.007649    0.000412    2.055902
C     0.246171    -1.135521    2.722671
C     0.251314    -1.176271    4.116051
H     -0.002315    -0.000048    5.911748
H     -0.448714    2.112252    4.629128
H     -0.412172    1.986085    2.068765
H     0.423360    -1.986057    2.070386
H     0.448726    -2.112378    4.630973
C     -0.003688    -0.000790    -4.905422
C     -0.231952    1.179944    -4.197630
C     -0.226105    1.138765    -2.804522
N     -0.008937    -0.001411    -2.138013
C     0.211710    -1.141216    -2.804167
C     0.222522    -1.181826    -4.197383
H     -0.001792    -0.000579    -5.993743
H     -0.412282    2.119650    -4.712075
H     -0.387145    1.992092    -2.152314
H     0.374253    -1.994560    -2.152079
H     0.406005    -2.121095    -4.711931
