29

Cr     -0.000353    0.001544    -0.001827
N     -0.208411    2.088177    0.372558
H     -1.176957    2.358945    0.576093
H     0.334312    2.428978    1.174564
H     0.062888    2.679554    -0.421336
N     2.097275    0.255123    -0.280123
H     2.377777    1.242078    -0.285357
H     2.673791    -0.179953    0.449335
H     2.447017    -0.115755    -1.171090
N     0.209809    -2.086668    -0.367949
H     1.182659    -2.360665    -0.544546
H     -0.085548    -2.676873    0.418204
H     -0.311941    -2.426100    -1.184377
N     -2.098732    -0.250557    0.269140
H     -2.384715    -1.235806    0.249144
H     -2.446208    0.099164    1.169486
H     -2.673194    0.205975    -0.448765
C     0.307423    -0.334096    2.075252
N     0.474809    -0.517664    3.207431
C     0.683246    -0.746698    4.614594
H     1.429587    -1.538230    4.730901
H     -0.267951    -1.050464    5.061774
H     1.039071    0.182697    5.069257
C     -0.308302    0.335203    -2.079136
N     -0.475720    0.515766    -3.211796
C     -0.684124    0.739329    -4.619759
H     -1.329981    -0.054952    -5.005877
H     0.287443    0.719195    -5.122439
H     -1.160819    1.715515    -4.750113
