53

Cr     -0.041326    -0.036306    -0.085778
C     -0.326727    -0.264626    2.114151
O     -0.473021    -0.386549    3.224583
C     0.255191    0.162758    -2.161663
N     0.434522    0.256271    -3.302118
C     0.666982    0.364438    -4.716290
H     0.240835    -0.513179    -5.209666
H     1.745287    0.408757    -4.890915
H     0.187685    1.275423    -5.084283
C     -0.153843    4.847917    0.395115
C     0.601681    4.069188    1.275555
C     0.616596    2.690517    1.113177
N     -0.089865    2.060885    0.137922
C     -0.832443    2.823932    -0.704999
C     -0.881375    4.207866    -0.611480
H     -0.174964    5.929397    0.490348
H     1.177509    4.519393    2.077519
H     1.216026    2.067381    1.767154
H     -1.401425    2.298369    -1.462800
H     -1.482828    4.772119    -1.316449
C     4.812353    0.039675    0.696832
C     4.007873    -0.906319    1.337436
C     2.642650    -0.913902    1.084050
N     2.047588    -0.023223    0.247497
C     2.836372    0.896474    -0.366978
C     4.209915    0.952187    -0.173296
H     5.884334    0.064132    0.870223
H     4.428427    -1.633505    2.024573
H     2.003545    -1.653519    1.552675
H     2.341755    1.603926    -1.021872
H     4.794227    1.702324    -0.696214
C     0.011257    -4.935552    -0.407061
C     -0.949163    -4.283703    0.370744
C     -0.942921    -2.896956    0.427924
N     -0.026161    -2.140261    -0.231181
C     0.908090    -2.781577    -0.979569
C     0.952368    -4.164576    -1.094510
H     0.025620    -6.019403    -0.475300
H     -1.698676    -4.838079    0.926007
H     -1.694461    -2.370128    1.004800
H     1.638097    -2.159989    -1.484558
H     1.716695    -4.625491    -1.711336
C     -4.934535    -0.050295    -0.569095
C     -4.322048    0.699320    0.439130
C     -2.937410    0.690761    0.539566
N     -2.146513    -0.035358    -0.294149
C     -2.749625    -0.767062    -1.266111
C     -4.127835    -0.791281    -1.436893
H     -6.015847    -0.057740    -0.674256
H     -4.905752    1.287323    1.140279
H     -2.438056    1.288454    1.294017
H     -2.102172    -1.347158    -1.913236
H     -4.557987    -1.387086    -2.235486
