23

Cr     -0.003239    -0.192144    0.008513
N     0.236726    1.903358    0.354212
H     -0.352960    2.316133    1.089116
H     0.023294    2.448704    -0.491444
H     1.195350    2.182320    0.600384
N     2.085034    -0.387554    -0.386461
H     2.616011    -0.450667    0.491980
H     2.529371    0.382009    -0.905019
H     2.347429    -1.235770    -0.905714
N     -0.260092    -2.295858    -0.243689
H     -1.103149    -2.691952    0.192336
H     0.509112    -2.888646    0.095551
H     -0.349325    -2.529774    -1.241157
N     -2.107662    0.019240    0.295394
H     -2.367071    -0.179023    1.270657
H     -2.709860    -0.597717    -0.265864
H     -2.470058    0.966142    0.123261
O     0.296825    -0.504944    1.992292
H     0.455729    0.181441    2.672524
H     0.320515    -1.368390    2.454153
O     -0.301008    0.105558    -1.977130
H     0.388593    0.175935    -2.669144
H     -1.162300    0.242017    -2.422972
