19

Cr     -0.001703    0.000566    0.002376
P     -0.417799    2.471607    -0.263347
H     -1.441528    3.030383    0.528484
H     0.636936    3.337354    0.089713
H     -0.761178    2.982392    -1.530914
P     2.474892    0.315322    -0.340694
H     3.014116    1.584037    -0.045347
H     3.325558    -0.480330    0.453152
H     3.025669    0.093446    -1.618660
P     0.415885    -2.469971    0.272341
H     1.414391    -3.036756    -0.545533
H     0.795791    -2.970827    1.533393
H     -0.650136    -3.337373    -0.040854
P     -2.478292    -0.315237    0.343804
H     -3.016485    -1.583709    0.045705
H     -3.029886    -0.096190    1.621934
H     -3.328890    0.481563    -0.448914
Cl     0.350493    0.378426    2.189817
Cl     -0.354960    -0.377726    -2.184621
