49

Cr     0.013095    0.017802    -0.004107
C     0.081649    -0.202273    2.134502
O     0.115695    -0.323012    3.254090
C     -0.020260    0.222368    -2.147761
O     -0.021452    0.324206    -3.269777
C     -0.049460    4.887460    0.489803
C     0.794667    4.102450    1.281826
C     0.796701    2.725882    1.107964
N     -0.007087    2.098370    0.205457
C     -0.832113    2.870686    -0.554803
C     -0.871346    4.253166    -0.447213
H     -0.066240    5.967987    0.601254
H     1.447888    4.548252    2.025186
H     1.464098    2.102970    1.692389
H     -1.483351    2.357152    -1.253163
H     -1.540718    4.819936    -1.086284
C     4.900388    -0.005751    -0.110837
C     4.201510    -0.926266    0.676838
C     2.814662    -0.896206    0.682367
N     2.098361    0.012826    -0.035811
C     2.787317    0.913479    -0.790619
C     4.173058    0.925332    -0.859260
H     5.986526    -0.013006    -0.139702
H     4.721376    -1.664219    1.279323
H     2.252099    -1.621305    1.259281
H     2.204460    1.646876    -1.336088
H     4.671061    1.658380    -1.485842
C     -0.014653    -4.872798    -0.431412
C     -0.819544    -4.232101    0.515065
C     -0.793776    -2.847215    0.598464
N     0.000178    -2.078681    -0.196379
C     0.784103    -2.711185    -1.111100
C     0.795285    -4.091278    -1.260482
H     -0.019151    -5.955309    -0.521890
H     -1.465800    -4.794784    1.180843
H     -1.431958    -2.329189    1.305782
H     1.424258    -2.090593    -1.727855
H     1.431452    -4.542166    -2.015251
C     -4.874013    -0.037750    0.064576
C     -4.168138    -0.759328    -0.903350
C     -2.781282    -0.728776    -0.891346
N     -2.072765    -0.002901    0.017015
C     -2.767805    0.704553    0.950488
C     -4.154090    0.700267    1.009472
H     -5.960221    -0.050796    0.082306
H     -4.682695    -1.343574    -1.659342
H     -2.213408    -1.304914    -1.613152
H     -2.190780    1.292187    1.655705
H     -4.657759    1.271701    1.782476
