37

Cr     0.000683    0.002896    0.002807
C     0.000565    3.175255    0.003000
N     0.001280    2.014809    0.002804
C     -0.000563    4.626034    0.003140
H     -0.279066    4.997879    -0.990346
H     0.998434    4.998984    0.258847
H     -0.722396    4.997598    0.740456
C     3.176678    -0.002810    0.003428
N     2.016482    0.000802    0.002951
C     4.627583    -0.008709    0.004019
H     5.004814    1.020947    0.003516
H     4.997747    -0.526894    -0.888829
H     4.996982    -0.525756    0.897848
C     -0.005477    -3.169626    0.002965
N     -0.001516    -2.009188    0.003061
C     -0.011666    -4.620309    0.002847
H     1.017907    -4.997790    0.008919
H     -0.524226    -4.989992    -0.893541
H     -0.534942    -4.990095    0.892971
C     -3.175334    0.003533    0.000245
N     -2.015132    0.003748    0.002161
C     -4.626316    0.002850    -0.002518
H     -4.999487    -0.739021    0.713706
H     -4.995995    -0.247895    -1.004097
H     -4.999563    0.994446    0.280007
C     0.001002    0.002886    2.104267
N     0.002085    0.002059    3.261784
C     0.003156    -0.000040    4.697821
H     0.610747    -0.839063    5.046857
H     -1.026367    -0.107480    5.049052
H     0.425948    0.944472    5.050120
C     0.001828    0.002179    -2.098838
N     0.003255    0.000548    -3.256365
C     0.005803    -0.002670    -4.692404
H     -0.602128    -0.841042    -5.042388
H     1.036055    -0.111955    -5.040913
H     -0.414612    0.942185    -5.046596
