17

Cr     -0.006257    -0.015711    0.000076
C     -0.342805    2.104266    -0.313317
O     -0.519117    3.199567    -0.479346
C     2.115814    0.310418    0.316432
O     3.211723    0.476773    0.488792
C     0.320782    -2.144224    0.316157
O     0.489890    -3.240439    0.483846
C     -2.126101    -0.378899    -0.308635
O     -3.218531    -0.573227    -0.473724
N     -0.253818    0.300751    2.076830
H     -1.244620    0.384237    2.353951
H     0.120340    -0.457803    2.669126
H     0.190524    1.157809    2.443509
N     0.270139    -0.243086    -2.083111
H     -0.445693    0.216793    -2.667821
H     1.167754    0.135849    -2.425486
H     0.270865    -1.226607    -2.397283
