23

Cr     -0.035132    0.029988    0.050775
P     -0.456578    2.566519    0.441452
H     -1.479467    2.889637    1.354442
H     0.640819    3.298214    0.935063
H     -0.825863    3.293724    -0.707436
P     2.496822    0.420995    -0.398259
H     2.967773    1.741927    -0.268165
H     3.374485    -0.305212    0.430368
H     2.926594    0.063049    -1.691292
P     0.316531    -2.499262    -0.452616
H     1.643479    -2.971435    -0.455884
H     -0.316551    -3.365176    0.460686
H     -0.175878    -2.943297    -1.695509
P     -2.601745    -0.341415    0.291294
H     -3.063992    -1.664046    0.144716
H     -3.142263    0.041235    1.534267
H     -3.402204    0.367254    -0.626232
P     0.427699    -0.294409    2.546663
H     1.199693    0.709764    3.163059
H     -0.702511    -0.365345    3.384257
H     1.133279    -1.465433    2.886108
C     -0.378875    0.330695    -2.035745
O     -0.564744    0.492337    -3.134633
