31
03/24/2023 16:57, XYZ structure generated by mol3D Class, molSimplify
Cr     0.079367    -0.082371    -0.075208
C     -0.143124    2.050995    0.255431
H     0.693825    2.666025    -0.094272
P     -1.252305    3.001805    1.019323
H     -2.411867    2.461093    1.579688
H     -1.155118    4.391724    1.192767
C     2.180423    0.237443    0.329584
H     2.390314    1.037054    1.048607
P     3.599588    -0.436688    -0.171591
H     3.624856    -1.483371    -1.096589
H     4.877727    -0.055396    0.265101
C     0.406362    -2.220904    -0.279094
H     1.200273    -2.609706    0.367520
P     -0.278842    -3.456875    -1.131475
H     -1.309617    -3.226967    -2.045749
H     0.130747    -4.799511    -1.097844
C     -2.039337    -0.403060    -0.340229
H     -2.529004    -0.947817    0.473708
P     -3.144270    -0.024190    -1.505864
H     -2.776973    0.686265    -2.650145
H     -4.514827    -0.326087    -1.461960
C     -0.032425    -0.355233    2.070234
H     0.423246    0.459339    2.642512
P     -0.564068    -1.518363    3.113566
H     -1.217263    -2.666035    2.657318
H     -0.501420    -1.442545    4.513634
C     0.449370    0.219484    -2.185809
H     0.625840    -0.703993    -2.748055
P     0.595668    1.512095    -3.202550
H     0.452049    2.825038    -2.748071
H     0.943887    1.441713    -4.560655
