15

Cr     0.002825    -0.003233    0.029967
C     0.011212    2.151233    0.012897
O     0.016239    3.273179    0.021787
C     2.157433    -0.010417    0.042635
O     3.279115    -0.014152    0.067095
C     0.009387    -2.157812    0.043943
O     0.012806    -3.279480    0.069011
C     -2.151676    -0.011453    0.015362
O     -3.273610    -0.016379    0.025577
C     -0.012392    0.015061    2.222898
O     -0.019112    0.023050    3.344714
P     -0.008128    0.007702    -2.582624
H     1.246107    0.360517    -3.120478
H     -0.345190    -1.250597    -3.121088
H     -0.942674    0.931078    -3.093666
