16

Cr     0.044389    0.039433    0.086993
S     0.407879    2.537002    -0.309019
H     -0.417450    2.897342    -1.320040
H     -0.360635    3.081105    0.659499
S     2.532928    -0.387110    -0.360690
H     2.788776    0.010361    -1.629708
H     3.107676    0.693498    0.210420
S     -0.327687    -2.465046    0.463978
H     -0.004329    -3.095286    -0.690030
H     0.806685    -2.822339    1.104598
S     -2.438535    0.458265    0.520858
H     -3.123615    -0.295811    -0.370746
H     -2.668502    -0.368328    1.564158
I     0.585786    0.342681    2.615149
C     -0.360917    -0.240054    -2.042067
O     -0.572427    -0.385717    -3.140367
