13
03/24/2023 16:57, XYZ structure generated by mol3D Class, molSimplify
Cr     0.000022    0.000003    0.000019
C     -0.000130    2.160466    0.000022
O     -0.000089    3.281439    0.000024
C     2.164654    -0.000289    -0.000368
O     3.285523    -0.000324    -0.000674
C     0.000152    -2.160462    0.000017
O     0.000114    -3.281435    0.000016
C     -2.164615    0.000271    0.000321
O     -3.285484    0.000308    0.000552
C     -0.000371    0.000005    2.160488
O     -0.000677    0.000008    3.281461
C     0.000334    0.000005    -2.160453
O     0.000568    0.000007    -3.281425
