31
03/24/2023 16:57, XYZ structure generated by mol3D Class, molSimplify
Cr     0.007134    -0.022306    -0.023352
C     0.289042    2.065424    0.366480
H     -0.134717    2.426013    1.311694
N     0.853834    3.046769    -0.267788
H     1.314462    2.936759    -1.170744
H     0.883909    4.005041    0.094378
C     2.087429    -0.270190    -0.452342
H     2.555801    0.425839    -1.159814
N     2.967462    -1.126471    -0.032702
H     2.739344    -1.869332    0.627409
H     3.943915    -1.128135    -0.343541
C     -0.274492    -2.110122    -0.413281
H     0.150123    -2.470791    -1.358078
N     -0.839896    -3.091390    0.220551
H     -1.301333    -2.981289    1.123084
H     -0.869678    -4.049695    -0.141556
C     -2.073048    0.225719    0.405916
H     -2.541357    -0.470418    1.113325
N     -2.953066    1.082152    -0.013454
H     -2.724956    1.825120    -0.673446
H     -3.929483    1.083831    0.297493
C     0.226669    -0.408267    2.078202
H     -0.527825    -1.025158    2.583901
N     1.111748    -0.012242    2.939712
H     1.900592    0.581204    2.683154
H     1.077762    -0.253738    3.935225
C     -0.212155    0.363547    -2.124951
H     0.542618    0.980047    -2.630713
N     -1.097360    -0.032198    -2.986458
H     -1.886455    -0.625299    -2.729874
H     -1.063230    0.209176    -3.981996
