21

Cr     -0.000452    0.000089    -0.025355
C     0.332321    2.012431    0.261517
N     0.521279    3.156084    0.426986
C     2.013546    -0.292008    -0.355692
N     3.156773    -0.457323    -0.545719
C     -0.332428    -2.012361    -0.311803
N     -0.521040    -3.156161    -0.476650
C     -2.014414    0.292046    0.305629
N     -3.157509    0.457162    0.496628
C     0.476042    -0.494986    3.087716
N     0.308466    -0.320555    1.960765
C     0.685990    -0.713407    4.511185
H     -0.273631    -0.684313    5.036638
H     1.338235    0.066858    4.915694
H     1.152944    -1.689750    4.673982
C     -0.476395    0.495141    -3.138156
N     -0.309243    0.320686    -2.011136
C     -0.685436    0.713368    -4.561783
H     0.274607    0.684690    -5.086494
H     -1.152691    1.689494    -4.725027
H     -1.337001    -0.067236    -4.966730
