21

Cr     -0.000156    0.000472    -0.000753
N     -0.214271    2.085331    0.386075
H     -1.183943    2.358120    0.596872
H     0.328141    2.439843    1.186912
H     0.051527    2.694761    -0.400929
N     2.098626    0.250282    -0.231842
H     2.406946    1.223442    -0.098923
H     2.686146    -0.294326    0.416228
H     2.446852    0.005054    -1.170176
N     0.215357    -2.086275    -0.378332
H     1.190337    -2.363938    -0.555236
H     -0.081390    -2.694314    0.398655
H     -0.300845    -2.438355    -1.197410
N     -2.099314    -0.248637    0.225014
H     -2.412860    -1.214655    0.057036
H     -2.444788    -0.036135    1.172363
H     -2.685191    0.322025    -0.401796
C     0.324836    -0.346807    2.132526
O     0.493414    -0.526149    3.228089
C     -0.325268    0.345957    -2.134160
O     -0.494100    0.524291    -3.229842
