21

Cr     0.004498    -0.016960    -0.002666
O     0.347851    1.925712    0.287945
H     1.208501    2.393137    0.227191
H     -0.349069    2.596486    0.450775
O     1.968432    -0.321431    -0.333674
H     2.425900    -0.353971    -1.200930
H     2.652460    -0.492090    0.347949
O     -0.337038    -1.957224    -0.298713
H     0.360239    -2.628272    -0.461050
H     -1.197190    -2.425683    -0.232680
O     -1.965728    0.271177    0.321638
H     -2.440522    0.239258    1.179349
H     -2.653356    0.369680    -0.370289
N     0.317125    -0.307081    2.079654
H     -0.411252    0.098606    2.682198
H     0.362507    -1.298964    2.348073
H     1.182782    0.118201    2.437749
N     -0.326834    0.387249    -2.062714
H     -1.064173    1.078089    -2.256620
H     0.495527    0.777924    -2.541043
H     -0.580192    -0.451232    -2.602114
