37

Cr     -0.000561    -0.000905    0.001077
C     0.298469    2.050665    0.341478
N     0.462833    3.181554    0.526567
C     0.666351    4.584811    0.755262
H     1.565632    4.900171    0.219507
H     0.787577    4.750921    1.828984
H     -0.205669    5.129913    0.384249
C     2.050540    -0.342452    0.300857
N     3.181076    -0.528960    0.465985
C     4.583745    -0.759542    0.670876
H     4.949490    -1.419297    -0.120428
H     4.722636    -1.228244    1.648746
H     5.105282    0.200595    0.634074
C     -0.299772    -2.051963    -0.341569
N     -0.464344    -3.182249    -0.530059
C     -0.669151    -4.584324    -0.764558
H     -1.431896    -4.701917    -1.538871
H     -1.000802    -5.050455    0.167073
H     0.275273    -5.025994    -1.093476
C     -2.052165    0.339929    -0.297222
N     -3.183179    0.525173    -0.460486
C     -4.586514    0.753801    -0.662917
H     -4.836498    1.751197    -0.291500
H     -5.147945    -0.006243    -0.113011
H     -4.802269    0.683349    -1.732372
C     -0.342007    -0.299216    2.052528
N     -0.528555    -0.462262    3.183365
C     -0.759351    -0.663953    4.586512
H     -0.251485    -1.580987    4.896862
H     -1.835894    -0.751696    4.755528
H     -0.359343    0.193753    5.133821
C     0.341034    0.297955    -2.050193
N     0.527128    0.462257    -3.180911
C     0.756974    0.666016    -4.583791
H     0.088176    0.009797    -5.147092
H     1.799749    0.425083    -4.807070
H     0.551202    1.712496    -4.824310
