25

Cr     -0.127945    0.045714    0.062682
S     -0.531950    2.562394    0.410719
H     0.021530    2.785297    1.624362
H     0.493264    3.117808    -0.276295
S     2.377329    0.483697    -0.314458
H     2.642005    -0.285657    -1.395387
H     2.960358    -0.360976    0.566282
S     0.293515    -2.454335    -0.384438
H     -0.172529    -3.073479    0.723577
H     -0.731205    -2.840408    -1.177872
S     -2.660776    -0.147091    0.534337
H     -2.834652    -1.423377    0.945144
H     -3.197704    -0.348288    -0.690169
N     0.178943    -0.250194    2.039433
C     0.336749    -0.383853    3.186923
C     0.532271    -0.548476    4.612066
H     0.824009    -1.584062    4.833403
H     1.322355    0.130005    4.961770
H     -0.400260    -0.316731    5.144436
N     -0.433906    0.365280    -1.907470
C     -0.612713    0.589835    -3.037535
C     -0.835692    0.865216    -4.441049
H     -1.872196    1.194287    -4.596853
H     -0.153089    1.656853    -4.779168
H     -0.654137    -0.042410    -5.032641
