21

Cr     -0.074035    0.016529    0.108110
S     0.229795    2.558940    -0.195125
H     1.277007    2.918681    0.585345
H     0.883461    2.743490    -1.366295
S     2.465336    -0.412397    -0.103792
H     2.619672    -1.503634    -0.889171
H     2.956314    0.455593    -1.018446
S     -0.524419    -2.485775    0.537789
H     0.421960    -2.889572    1.419063
H     -0.013781    -3.176584    -0.509064
S     -2.585740    0.416392    0.636643
H     -3.269286    -0.474499    -0.119950
H     -2.955084    1.500230    -0.086882
N     0.162765    0.247159    2.216017
H     -0.088423    1.184269    2.557725
H     -0.423040    -0.379989    2.783806
H     1.124591    0.097891    2.549000
N     -0.491039    -0.160268    -1.969204
H     -1.075652    0.592053    -2.355092
H     0.355146    -0.168175    -2.551532
H     -0.988115    -1.021648    -2.228658
