49

Cr     -0.028329    0.072918    -0.013290
C     -0.046946    0.005382    2.124438
N     -0.044257    -0.034032    3.284880
C     -0.047728    -0.083997    4.721036
H     0.839580    -0.625180    5.058900
H     -0.951610    -0.601142    5.053402
H     -0.035703    0.937678    5.109790
C     0.062205    0.200365    -2.148344
N     0.130486    0.322154    -3.300955
C     0.218353    0.479065    -4.727028
H     -0.184752    -0.417667    -5.205223
H     1.267665    0.611794    -5.003091
H     -0.362852    1.356522    -5.022418
O     -0.083720    2.458591    -0.022808
C     -1.237256    3.233097    -0.101712
C     -0.908611    4.561512    -0.171955
C     0.509340    4.639903    -0.147589
C     0.977741    3.356265    -0.056631
H     -2.167389    2.686539    -0.093854
H     -1.607734    5.385475    -0.234060
H     1.965256    2.921867    -0.011344
H     1.118143    5.534065    -0.189143
O     2.139427    -0.011649    0.003997
C     3.024037    0.448653    0.995672
C     4.279160    0.023814    0.720984
C     4.214106    -0.749550    -0.488446
C     2.922465    -0.755235    -0.895445
H     2.583125    1.043278    1.779802
H     5.164448    0.237823    1.305672
H     2.401307    -1.164901    -1.744896
H     5.041308    -1.231984    -0.993154
O     0.037435    -2.404755    0.006495
C     1.062321    -3.137373    0.591910
C     0.807032    -4.483731    0.481650
C     -0.430305    -4.612717    -0.194702
C     -0.867390    -3.338991    -0.471901
H     1.863894    -2.567518    1.035533
H     1.440739    -5.281202    0.849121
H     -1.746467    -2.948297    -0.961980
H     -0.946682    -5.528897    -0.452250
O     -2.185507    0.008662    -0.029470
C     -3.068989    0.295749    1.030240
C     -4.344555    0.113326    0.623490
C     -4.301691    -0.311436    -0.750210
C     -3.001482    -0.365380    -1.114776
H     -2.606046    0.590266    1.956598
H     -5.230540    0.259565    1.227487
H     -2.483393    -0.589735    -2.032069
H     -5.150131    -0.539234    -1.382416
