20

Cr     0.077808    0.037604    0.035536
I     0.680691    2.830129    0.060681
I     2.867289    -0.524900    0.084979
I     -0.482651    -2.720876    -0.266201
I     -2.673929    0.629183    -0.223309
C     -0.192296    -0.138463    4.960463
C     -0.770214    0.914593    4.255273
C     -0.669326    0.933975    2.867609
N     -0.027576    -0.026779    2.175710
C     0.527438    -1.046265    2.858755
C     0.466534    -1.136473    4.246170
H     -0.255064    -0.181157    6.045051
H     -1.296836    1.717675    4.760608
H     -1.101908    1.731477    2.277985
H     1.028561    -1.799171    2.264520
H     0.932745    -1.980280    4.744469
N     0.204240    0.171172    -2.040962
H     -0.056738    1.112919    -2.334317
H     -0.422700    -0.508740    -2.471252
H     1.163917    -0.015593    -2.337869
