18

Cr     -0.016001    -0.045964    0.234613
S     0.411341    2.449795    -0.157088
H     -0.736125    3.080310    0.192403
H     0.283948    2.691083    -1.485302
S     2.479616    -0.406702    0.671574
H     2.902160    -1.301541    -0.253588
H     3.116932    0.652849    0.115961
S     -0.461354    -2.541965    0.669051
H     0.382539    -2.874884    1.676224
H     0.192880    -3.246053    -0.286474
S     -2.520006    0.319684    -0.150411
H     -3.073891    -0.917353    -0.183109
H     -2.666016    0.556684    -1.476561
S     -0.378669    0.304960    2.724814
H     0.655043    1.069537    3.155056
H     -1.325917    1.264952    2.858930
C     0.295273    -0.422889    -1.841229
O     0.458584    -0.631263    -2.935079
