19

Cr     0.049105    0.031255    -0.035816
O     0.319140    1.986766    -0.371057
H     -0.338094    2.700781    -0.221937
H     1.200473    2.409487    -0.458278
O     2.029996    -0.270412    -0.274160
H     2.694312    -0.302351    0.449005
H     2.514023    -0.452161    -1.107168
O     -0.236396    -1.926514    0.246710
H     0.462546    -2.606619    0.353646
H     -1.098175    -2.342145    0.463151
O     -1.920405    0.325132    0.295684
H     -2.634657    0.461166    -0.361778
H     -2.328028    0.433678    1.182710
C     0.418733    0.355851    2.229386
O     0.600065    0.522086    3.325500
P     -0.369205    -0.291247    -2.604130
H     0.720630    0.130036    -3.391472
H     -1.460283    0.460876    -3.082471
H     -0.623788    -1.625663    -2.972247
