17

Cr     -0.001073    -0.000053    0.011319
Cl     -0.386218    2.299815    0.366496
Cl     2.309115    0.348494    0.389620
Cl     0.384314    -2.299878    -0.343659
Cl     -2.311272    -0.348323    -0.366997
C     -0.475853    -0.492924    3.130368
N     -0.300545    -0.316887    2.005141
C     -0.699274    -0.711663    4.552150
H     -1.769994    -0.824158    4.749584
H     -0.319361    0.140115    5.125056
H     -0.180297    -1.618781    4.877478
C     0.474967    0.492969    -3.107291
N     0.298383    0.316774    -1.982287
C     0.700794    0.711684    -4.528697
H     1.771880    0.824186    -4.724157
H     0.182420    1.618784    -4.855025
H     0.322011    -0.140158    -5.102254
