20

Cr     -0.043077    0.055362    0.035192
I     0.540590    2.876462    0.012719
I     2.740036    -0.497439    -0.253378
I     -0.642596    -2.726283    -0.229110
I     -2.853293    0.632175    0.098333
C     0.139174    -0.163686    4.963894
C     -0.513647    0.892714    4.332346
C     -0.542029    0.935142    2.941757
N     0.043033    -0.008476    2.179870
C     0.674632    -1.028285    2.791422
C     0.743630    -1.140894    4.176715
H     0.176186    -0.223757    6.048823
H     -1.000448    1.680667    4.897755
H     -1.035174    1.736944    2.407902
H     1.132058    -1.760797    2.139105
H     1.265568    -1.984535    4.616495
N     -0.186065    0.165317    -2.044272
H     -1.133289    -0.085909    -2.329039
H     0.483167    -0.474735    -2.472023
H     0.011535    1.120025    -2.350608
