19

Cr     0.001666    -0.003380    -0.007602
N     0.427831    2.008653    -0.310931
H     -0.381724    2.641028    -0.259980
P     1.792342    2.803963    -0.647320
P     3.204750    0.895939    -0.661742
N     2.044952    -0.185411    -0.355698
H     2.419241    -1.142975    -0.318429
N     -0.226569    -2.011877    0.458859
H     -0.412341    -2.631697    -0.340791
P     -0.164313    -2.827680    1.851547
P     0.275349    -0.946366    3.231580
N     0.279584    0.148226    2.044199
H     0.455010    1.097598    2.399873
N     -2.039808    0.348193    0.124364
H     -2.393453    0.575531    1.063486
P     -3.228592    0.303415    -0.968074
P     -1.858527    -0.246492    -2.827388
N     -0.469773    -0.315828    -2.005695
H     0.326768    -0.540466    -2.616663
