22

Cr     0.047056    0.143085    0.041332
S     0.344682    2.645250    -0.373488
H     1.533230    2.963985    0.189492
H     0.809532    2.685715    -1.643190
S     2.569682    -0.192540    -0.262954
H     2.618915    -0.963223    -1.372933
H     2.935164    -1.185725    0.581520
S     -0.495940    -2.328224    0.480709
H     0.165642    -2.668281    1.611470
H     0.321737    -3.005239    -0.356475
S     -2.446151    0.560824    0.497005
H     -3.045099    -0.374159    -0.275978
H     -2.749092    1.600594    -0.315033
S     0.391486    0.465774    2.559497
H     1.516302    1.196684    2.744719
H     -0.462947    1.447645    2.933299
C     -0.492409    -0.351453    -3.035883
N     -0.265666    -0.170032    -1.904489
C     -0.771145    -0.573908    -4.437969
H     0.166054    -0.567963    -5.012097
H     -1.429598    0.219654    -4.818555
H     -1.267288    -1.545681    -4.570929
