21

Cr     0.135610    0.009684    -0.102696
C     0.488100    0.036389    2.178246
O     0.655298    0.040914    3.289345
O     -0.147373    1.962520    0.082107
H     0.531770    2.665028    -0.017105
H     -1.028740    2.391204    0.136984
O     2.094716    0.316216    -0.382735
H     2.529773    0.397010    -1.258176
H     2.785540    0.447093    0.302732
O     0.438406    -1.942868    0.039660
H     1.303737    -2.395107    -0.066177
H     -0.257628    -2.625284    0.155419
O     -1.816009    -0.297987    0.226306
H     -2.267397    -0.371294    1.095264
H     -2.494115    -0.419181    -0.471648
C     -0.182457    -0.017481    -2.139571
N     -0.354770    -0.030363    -3.284355
C     -0.566576    -0.039922    -4.708823
H     -1.277451    -0.838210    -4.948233
H     0.395820    -0.224828    -5.198468
H     -0.966253    0.936467    -5.003722
