14

Cr     0.049323    0.145285    -0.081534
C     0.369725    2.270067    -0.396596
O     0.538127    3.366623    -0.560872
C     2.175663    -0.187641    -0.361780
O     3.277980    -0.352610    -0.485662
C     -0.248001    -1.930803    0.321658
O     -0.400982    -3.018659    0.551633
C     -2.059095    0.520655    0.262299
O     -3.144300    0.721385    0.462215
C     0.394763    0.413601    2.029995
O     0.580764    0.578039    3.124004
S     -0.368695    -0.284677    -2.549607
H     -1.568139    -0.911845    -2.701897
H     0.402906    -1.329423    -2.959534
