21

Cr     0.003150    0.000917    -0.001766
P     -0.434265    2.555076    0.337784
H     -0.507023    2.944764    1.689749
H     0.562768    3.394456    -0.196499
H     -1.623123    3.064976    -0.218670
P     2.549343    0.329283    0.469304
H     2.920048    1.573725    1.014487
H     3.098581    -0.601172    1.372887
H     3.369156    0.208208    -0.670159
P     0.435332    -2.544003    -0.408671
H     1.777015    -2.942614    -0.562625
H     -0.040235    -3.373437    0.626099
H     -0.193281    -3.057060    -1.560224
P     -2.554853    -0.340133    -0.400736
H     -3.008405    -1.673116    -0.435177
H     -3.380109    0.261431    0.569412
H     -3.021470    0.200975    -1.614865
C     -0.310207    -0.352627    2.073348
O     -0.478186    -0.543016    3.169549
C     0.319803    0.354769    -2.076443
O     0.489081    0.545160    -3.172443
