17

Cr     -0.077404    0.116313    0.204774
S     0.320667    2.628014    0.610900
H     1.034073    2.916525    -0.500884
H     -0.826910    3.137339    0.108979
S     2.456205    -0.059470    -0.174472
H     2.869797    -1.211061    0.400123
H     2.473897    -0.534606    -1.438576
S     -0.560805    -2.376915    -0.137634
H     0.362170    -3.076984    0.559464
H     -0.000345    -2.586131    -1.348104
S     -2.573559    0.513098    0.614558
H     -3.004548    -0.553975    1.325298
H     -3.052992    0.065433    -0.566715
S     0.326556    -0.342823    2.748638
H     1.307436    0.533632    3.061275
H     -0.635286    0.370170    3.376064
Cl     -0.406057    0.456968    -1.953670
