37

Cr     0.060517    -0.075106    -0.104560
N     0.075380    2.022614    0.004755
H     -0.583052    2.584427    -0.535991
N     1.381177    2.636779    -0.179721
H     1.603457    2.877659    -1.155411
H     1.513381    3.491494    0.378818
H     2.021898    1.847084    0.149915
N     2.080054    0.091915    0.471516
H     2.391116    -0.222545    1.391555
N     3.020586    -0.471820    -0.485600
H     2.451327    -0.391672    -1.390945
H     3.908403    0.046008    -0.539967
H     3.256041    -1.458715    -0.315091
N     0.045968    -2.172788    -0.213999
H     0.704435    -2.733948    0.327381
N     -1.259679    -2.787224    -0.029257
H     -1.900689    -1.997415    -0.358232
H     -1.391955    -3.641691    -0.588153
H     -1.481461    -3.028636    0.946407
N     -1.959078    -0.242605    -0.680396
H     -2.270185    0.070772    -1.600797
N     -2.899449    0.322227    0.276226
H     -2.330313    0.242464    1.181726
H     -3.134474    1.309090    0.104964
H     -3.787462    -0.195226    0.330895
N     -0.715342    0.033741    1.849523
H     -0.596775    -0.737885    2.507394
N     -0.349885    1.240566    2.575694
H     -0.189774    1.919437    1.765879
H     -1.086595    1.574940    3.212216
H     0.513718    1.153024    3.127605
N     0.835981    -0.183370    -2.058785
H     0.715220    0.588155    -2.716366
N     0.471684    -1.390648    -2.784928
H     0.311563    -2.069612    -1.975124
H     -0.391675    -1.303727    -3.337304
H     1.208925    -1.724524    -3.421090
