25

Cr     -0.015712    -0.021078    -0.051002
P     -0.450353    2.529522    -0.376537
H     -1.701660    3.028883    0.035407
H     0.442579    3.397763    0.281491
H     -0.376994    2.988973    -1.707492
P     2.536833    0.335169    -0.428885
H     3.009055    1.662462    -0.456009
H     3.390930    -0.261019    0.519285
H     3.038618    -0.179919    -1.641186
P     0.368236    -2.560272    0.382112
H     1.693911    -2.995246    0.578979
H     -0.290249    -3.103345    1.502321
H     -0.070525    -3.407593    -0.655430
P     -2.566927    -0.374496    0.378296
H     -3.031797    -1.698030    0.511695
H     -3.100684    0.243849    1.525395
H     -3.404282    0.126820    -0.639243
P     0.325353    0.445142    2.484987
H     1.559086    1.013417    2.858449
H     -0.590423    1.335207    3.079965
H     0.247015    -0.665516    3.348056
N     -0.216846    -0.408162    -2.133889
H     -1.177806    -0.639395    -2.411247
H     0.034887    0.396106    -2.719631
H     0.354679    -1.183980    -2.487391
