27

Cr     0.067003    -0.209555    -0.082667
P     -0.142532    2.065294    1.130787
H     -1.316414    2.302193    1.872432
H     0.860593    2.394660    2.063291
H     -0.113353    3.167155    0.255552
P     2.598350    0.215889    -0.431360
H     2.972048    1.571897    -0.502854
H     3.506902    -0.294351    0.515494
H     3.112520    -0.288476    -1.641443
P     0.373170    -2.524836    -1.191905
H     1.497450    -3.280696    -0.806223
H     -0.672742    -3.453337    -1.026894
H     0.513100    -2.471986    -2.591609
P     -2.485384    -0.550720    0.180688
H     -3.054005    -1.591189    -0.579234
H     -3.006294    -0.805612    1.464323
H     -3.245579    0.561107    -0.229765
P     0.417303    -1.359540    2.193227
H     1.749202    -1.624953    2.565673
H     -0.070963    -0.680487    3.326707
H     -0.182539    -2.625230    2.343548
C     -0.418618    1.169969    -2.897108
N     -0.235322    0.664937    -1.861275
C     -0.645946    1.797467    -4.182495
H     -0.224406    1.174307    -4.982669
H     -0.165351    2.784759    -4.206708
H     -1.723941    1.919098    -4.353780
