20

Cr     0.009282    0.037523    0.040244
S     0.373145    2.563580    -0.396134
H     -0.361261    3.183166    0.559240
H     -0.489009    2.877088    -1.392226
S     2.540748    -0.392288    -0.304777
H     2.734978    -0.834093    -1.570043
H     3.070774    0.833471    -0.531987
S     -0.388578    -2.483805    0.432930
H     -0.814373    -2.576191    1.715628
H     0.824116    -3.038065    0.675954
S     -2.513570    0.475907    0.405885
H     -2.718660    0.312578    1.735576
H     -3.154790    -0.663351    0.050415
S     0.453937    0.416855    2.583892
H     1.470896    -0.430446    2.868909
H     1.210117    1.533799    2.709379
P     -0.490222    -0.367522    -2.506160
H     0.226315    0.452893    -3.399691
H     -0.200613    -1.670894    -2.955484
H     -1.828886    -0.180570    -2.903884
