31

Cr     -0.002178    -0.023278    0.002237
N     -0.293742    1.958133    0.299087
C     -0.439601    3.089125    0.523378
C     -0.621425    4.499873    0.803075
H     -0.339494    5.093615    -0.075779
H     -1.671518    4.699248    1.050975
H     0.010049    4.793412    1.651316
N     1.977776    0.288323    -0.255363
C     3.104472    0.459838    -0.481710
C     4.510296    0.672778    -0.763587
H     4.616787    1.360484    -1.612140
H     5.007068    1.104407    0.114485
H     4.988285    -0.282611    -1.014089
N     0.276850    -1.990965    -0.358466
C     0.458667    -3.129805    -0.500002
C     0.687348    -4.549785    -0.679557
H     1.448981    -4.709293    -1.453054
H     1.035114    -4.989843    0.263807
H     -0.243678    -5.043105    -0.986001
N     -1.973324    -0.349352    0.320340
C     -3.111570    -0.541989    0.454072
C     -4.531170    -0.782206    0.621460
H     -4.865405    -1.544658    -0.093598
H     -4.731550    -1.135030    1.641197
H     -5.089642    0.145648    0.445042
O     0.325661    -0.336543    1.952792
H     1.186762    -0.217152    2.395913
H     -0.381352    -0.374376    2.623806
O     -0.288589    0.272938    -1.959751
H     -0.576622    1.123625    -2.341508
H     -0.485878    -0.445764    -2.589488
