19

Cr     0.000066    -0.000004    0.000175
C     0.000061    2.101355    0.000553
N     0.000046    3.254862    0.000744
H     0.000030    4.273049    0.000850
C     2.101423    -0.000029    -0.000134
N     3.254929    -0.000006    -0.000201
H     4.273117    -0.000023    -0.000257
C     0.000039    -2.101360    -0.000164
N     0.000068    -3.254867    -0.000277
H     0.000064    -4.273054    -0.000360
C     -2.101291    -0.000016    0.000351
N     -3.254797    -0.000037    0.000406
H     -4.272985    -0.000054    0.000380
C     -0.000394    0.000493    2.105598
N     -0.000571    0.000730    3.258978
H     -0.000656    0.000869    4.277172
C     0.000477    -0.000412    -2.105241
N     0.000613    -0.000589    -3.258621
H     0.000682    -0.000678    -4.276814
