9

Cr     0.000000    -0.000192    0.022183
F     -0.000048    1.828771    0.018402
F     1.861613    0.000240    0.014021
F     0.000048    -1.828780    -0.001839
F     -1.861613    0.000269    0.014045
C     0.000008    0.007933    2.071898
O     -0.000003    -0.000711    3.211715
C     -0.000007    -0.007803    -2.037914
O     0.000002    0.000274    -3.177391
