27

Cr     -0.000125    0.000134    -0.000175
I     0.088691    2.835154    0.001510
I     2.833117    -0.005108    -0.002945
I     -0.089126    -2.834804    0.000588
I     -2.833396    0.005877    -0.001825
C     0.000124    -0.000180    4.955911
C     -0.828596    0.862836    4.243940
C     -0.799964    0.834843    2.852881
N     -0.000546    0.000646    2.159816
C     0.799375    -0.833783    2.852041
C     0.828758    -0.862601    4.243130
H     0.000281    -0.001129    6.043215
H     -1.494509    1.555931    4.747458
H     -1.427428    1.491678    2.266130
H     1.425770    -1.490677    2.264118
H     1.494872    -1.556630    4.745320
C     -0.000257    0.000249    -4.955589
C     -0.825067    0.866308    -4.242718
C     -0.796311    0.836445    -2.851699
N     0.000760    -0.000898    -2.159763
C     0.797206    -0.837915    -2.852920
C     0.824819    -0.866645    -4.243961
H     -0.000195    0.001045    -6.042833
H     -1.487948    1.563610    -4.744716
H     -1.420328    1.495718    -2.263953
H     1.422271    -1.496968    -2.266011
H     1.487752    -1.563130    -4.746951
