12

Cr     0.046995    0.046980    -0.000343
C     0.015538    2.196849    0.318303
O     0.010535    3.315483    0.409724
C     2.196942    0.013601    0.317780
O     3.315595    0.007467    0.408862
C     0.076447    -2.097515    -0.357027
O     0.103805    -3.190852    -0.609445
C     -2.097540    0.078384    -0.356472
O     -3.190916    0.106948    -0.608600
C     -0.307177    -0.307082    2.229160
O     -0.483294    -0.482987    3.324541
F     0.313072    0.312728    -1.671483
