19

Cr     -0.106861    0.005787    -0.002727
S     0.161146    2.540384    -0.491311
H     0.976652    3.045188    0.462839
H     1.069157    2.634391    -1.492056
S     2.403451    -0.446452    0.404702
H     2.979741    0.728124    0.751270
H     2.489073    -0.989614    1.642355
S     -0.641030    -2.505133    0.359599
H     -0.510406    -2.738460    1.687816
H     0.473111    -3.186495    0.001588
S     -2.645523    0.405041    -0.388206
H     -3.126289    -0.721686    -0.965926
H     -2.728936    1.169798    -1.503170
S     -0.591454    0.416389    2.510767
H     0.359918    1.266121    2.962921
H     -1.595246    1.325727    2.545099
S     0.272460    -0.396784    -2.531307
H     -0.603460    -1.365726    -2.888558
H     1.370217    -1.185668    -2.622781
