46

Cr     -0.070585    0.026197    -0.123559
O     -0.430087    0.151493    1.908843
H     0.253610    0.119330    2.606409
H     -1.268304    0.457881    2.306722
C     0.263822    -0.139597    -2.179598
N     0.443002    -0.230769    -3.318809
C     0.668292    -0.341987    -4.735628
H     0.076724    -1.179107    -5.117727
H     1.734715    -0.516363    -4.905060
H     0.355503    0.592808    -5.209845
O     -0.171149    2.052665    -0.241133
C     -0.727183    2.806695    -1.319443
C     -0.552516    4.115679    -1.069550
C     0.132624    4.242615    0.198795
C     0.353117    3.007442    0.681589
H     -1.215779    2.232843    -2.089013
H     -0.878828    4.929327    -1.705732
H     0.820043    2.598917    1.561746
H     0.413146    5.167447    0.687903
O     1.909131    0.112820    0.220773
C     2.648700    -0.715958    1.123123
C     3.907132    -0.249397    1.201216
C     4.014846    0.907571    0.338924
C     2.818458    1.112336    -0.237765
H     2.115055    -1.564179    1.520422
H     4.700704    -0.677924    1.801010
H     2.412425    1.830939    -0.930409
H     4.903420    1.505013    0.175564
O     0.014603    -1.994940    0.041947
C     -0.666050    -2.784971    1.018163
C     -0.241164    -4.055977    0.919266
C     0.748138    -4.120713    -0.134992
C     0.894734    -2.886782    -0.646405
H     -1.388205    -2.264360    1.622772
H     -0.588366    -4.882819    1.526596
H     1.515770    -2.442138    -1.405882
H     1.280687    -5.005712    -0.461331
O     -2.060913    -0.057034    -0.422831
C     -2.796282    -1.167062    -0.934992
C     -4.108248    -0.941442    -0.750479
C     -4.257073    0.341085    -0.097600
C     -3.031163    0.859467    0.094836
H     -2.207463    -1.959508    -1.365694
H     -4.909883    -1.605192    -1.049892
H     -2.639285    1.795648    0.458162
H     -5.190553    0.816858    0.178038
