17

Cr     -0.100803    0.016359    0.211009
S     -0.469471    2.487559    0.708372
H     0.765480    3.038193    0.742481
H     -0.724254    2.877723    -0.561381
S     2.398793    0.404253    -0.111351
H     2.425287    0.456546    -1.462812
H     2.979331    -0.814157    -0.033233
S     0.255152    -2.481640    -0.193676
H     -0.893496    -3.080541    0.195229
H     -0.055605    -2.493021    -1.509822
S     -2.590063    -0.397882    0.627758
H     -3.003658    0.587133    1.456500
H     -3.085381    0.170012    -0.494992
S     0.250118    -0.380962    2.780666
H     1.234656    -1.300926    2.885507
H     1.010684    0.645086    3.222489
F     -0.379472    0.272044    -1.466605
