29

Cr     0.000001    0.000011    -0.000077
C     -0.000038    0.000092    2.141705
O     -0.000104    0.000179    3.265564
C     0.000034    0.000090    -2.141600
O     0.000100    0.000176    -3.265428
C     -0.000642    2.093929    -0.000401
N     -0.000583    3.251232    -0.000553
C     0.000015    4.688627    -0.000483
H     0.840693    5.035367    -0.608901
H     0.108283    5.033800    1.032482
H     -0.947409    5.036865    -0.422427
C     2.093905    0.000585    -0.000361
N     3.251291    0.000567    -0.000500
C     4.688643    0.000079    -0.000430
H     5.035432    -0.840548    -0.608894
H     5.033814    -0.108227    1.032532
H     5.036820    0.947572    -0.422283
C     0.000648    -2.093958    -0.000387
N     0.000589    -3.251267    -0.000528
C     -0.000016    -4.688664    -0.000483
H     -0.840727    -5.035371    -0.608882
H     -0.108276    -5.033839    1.032483
H     0.947435    -5.036885    -0.422386
C     -2.093961    -0.000199    0.000480
N     -3.251227    -0.000271    0.000501
C     -4.688642    0.000472    -0.000189
H     -5.034801    -0.609522    -0.840195
H     -5.035823    1.032240    -0.107821
H     -5.035454    -0.423133    0.947460
