23

Cr     0.054691    0.045089    0.068572
P     0.433986    2.538337    -0.350524
H     1.279006    3.173667    0.582677
H     -0.664187    3.421969    -0.328139
H     1.049108    2.938893    -1.553499
P     2.535331    -0.389901    -0.337328
H     3.401476    0.698416    -0.564866
H     2.956701    -1.267345    -1.356055
H     3.137234    -0.972231    0.793933
P     -0.289584    -2.449948    0.491705
H     -1.244787    -3.208404    -0.215109
H     -0.702015    -2.651790    1.821793
H     0.816940    -3.320167    0.422214
P     -2.440171    0.432652    0.378621
H     -3.327698    0.592278    -0.704113
H     -2.745275    1.578315    1.138489
H     -3.113211    -0.552859    1.126842
O     0.293581    0.185573    1.812680
H     0.445248    1.010432    2.309397
P     -0.382668    -0.365683    -2.513316
H     -1.607602    -0.962397    -2.875519
H     0.504470    -1.212552    -3.208795
H     -0.390561    0.737736    -3.391495
