17

Cr     0.036944    -0.036395    0.054081
O     0.424150    1.948617    -0.137659
H     0.912475    2.194101    -0.951773
H     -0.355315    2.541494    -0.116155
O     1.985722    -0.466497    0.418435
H     2.540118    -0.623044    -0.374380
H     2.531518    0.010046    1.075072
O     -0.332478    -1.988541    0.489060
H     0.472223    -2.511795    0.685902
H     -0.827321    -2.507959    -0.178064
O     -1.916217    0.336339    -0.259833
H     -2.622496    0.227478    0.405917
H     -2.298033    0.243408    -1.155770
O     -0.306192    0.314222    2.056400
H     -0.120700    1.121830    2.572581
H     -0.486338    -0.410218    2.685403
Cl     0.363436    -0.394526    -2.101560
