31

Cr     0.008612    -0.045971    -0.006375
N     0.342153    1.909514    -0.309291
C     0.556835    3.045675    -0.434999
C     0.824686    4.461125    -0.590248
H     0.819463    4.948080    0.393602
H     1.806896    4.605485    -1.057894
H     0.054256    4.920763    -1.222007
N     1.976879    -0.333121    0.296469
C     3.125135    -0.483201    0.400800
C     4.556631    -0.669231    0.530417
H     5.079664    -0.033733    -0.195503
H     4.878590    -0.397158    1.543638
H     4.814631    -1.718517    0.340038
N     -0.305838    -2.019055    0.270237
C     -0.467472    -3.162263    0.410615
C     -0.670445    -4.587614    0.582723
H     0.023153    -5.142467    -0.062023
H     -0.487315    -4.867645    1.627944
H     -1.700886    -4.853098    0.314965
N     -1.966725    0.261024    -0.286750
C     -3.101500    0.472795    -0.427326
C     -4.516075    0.737428    -0.604189
H     -4.967141    -0.042669    -1.230369
H     -5.017392    0.748061    0.372095
H     -4.654847    1.712525    -1.087853
S     -0.346603    0.428249    2.454766
H     -1.302978    -0.477240    2.757576
H     0.652531    -0.294998    3.007047
S     0.411494    -0.430118    -2.475863
H     -0.444708    0.464683    -3.016530
H     -0.389536    -1.491122    -2.719836
