13

Cr     0.000080    0.000230    0.000565
N     0.302445    2.031776    0.331536
N     0.464049    3.114538    0.507850
N     2.031315    -0.331846    0.304112
N     3.114080    -0.508387    0.465396
N     -0.302305    -2.031199    -0.330627
N     -0.463393    -3.113908    -0.507717
N     -2.030986    0.332579    -0.302000
N     -3.113768    0.509488    -0.462815
N     -0.332577    -0.304808    2.034146
N     -0.508685    -0.466343    3.116794
N     0.332988    0.304951    -2.033125
N     0.509799    0.465866    -3.115746
