19

Cr     -0.000269    0.000153    -0.009696
N     -0.224751    2.089136    0.359644
H     -1.198046    2.317785    0.566248
H     0.320806    2.408660    1.162161
H     0.026171    2.644940    -0.460051
N     2.097798    0.267371    -0.296107
H     2.340247    1.258893    -0.277210
H     2.643450    -0.180029    0.442852
H     2.416023    -0.078339    -1.203163
N     0.225239    -2.089419    -0.375985
H     1.200730    -2.319285    -0.570419
H     -0.036154    -2.644917    0.440625
H     -0.311064    -2.408508    -1.184929
N     -2.098218    -0.267189    0.275890
H     -2.345158    -1.256806    0.231013
H     -2.409183    0.055282    1.193973
H     -2.646834    0.201518    -0.447506
F     0.286201    -0.283951    1.741826
F     -0.286999    0.284742    -1.760902
