50

Cr     0.010311    -0.013152    0.034930
C     0.180688    -0.025116    -2.102674
O     0.265629    -0.046093    -3.226043
O     -0.183695    -0.011961    2.095053
H     0.367229    -0.526172    2.714300
H     -1.031339    0.173290    2.541840
C     0.046627    4.869431    -0.041745
C     0.650403    4.154226    0.996974
C     0.606095    2.766615    0.977688
N     -0.015973    2.071850    -0.011766
C     -0.614851    2.775135    -1.011052
C     -0.596234    4.161103    -1.061881
H     0.071665    5.955176    -0.053603
H     1.153196    4.661978    1.814284
H     1.067943    2.182503    1.764263
H     -1.137689    2.206108    -1.771906
H     -1.083098    4.672897    -1.885603
C     4.888644    0.106276    0.421415
C     4.136548    -0.807810    1.166363
C     2.757387    -0.829630    1.014097
N     2.096410    0.018067    0.181637
C     2.837404    0.903807    -0.538354
C     4.220918    0.969697    -0.450945
H     5.969985    0.142863    0.517134
H     4.612910    -1.502270    1.850765
H     2.159415    -1.560392    1.547583
H     2.296380    1.581960    -1.187775
H     4.761770    1.692167    -1.054019
C     -0.001308    -4.909442    -0.000824
C     -0.829217    -4.193386    0.869331
C     -0.795897    -2.806393    0.844556
N     0.026894    -2.108045    0.017751
C     0.838295    -2.813224    -0.816628
C     0.842800    -4.200439    -0.860198
H     -0.012863    -5.995531    -0.007213
H     -1.495877    -4.702394    1.557934
H     -1.442942    -2.226426    1.491010
H     1.512079    -2.243830    -1.446903
H     1.502426    -4.712207    -1.553621
C     -4.881617    0.031746    -0.427983
C     -4.114531    -0.888921    -1.146128
C     -2.734262    -0.887137    -0.992339
N     -2.088424    -0.010603    -0.178217
C     -2.843366    0.887246    0.510575
C     -4.227630    0.930368    0.420445
H     -5.963051    0.050613    -0.527791
H     -4.575255    -1.606521    -1.816972
H     -2.121711    -1.609278    -1.519514
H     -2.312647    1.601442    1.131306
H     -4.780078    1.663334    0.999841
