40

Cr     0.000078    0.000053    0.017894
C     0.005927    2.107948    0.043543
N     0.005298    3.265374    0.032874
C     0.005642    4.701628    0.006909
H     0.842967    5.039623    -0.609509
H     0.113585    5.069059    1.030710
H     -0.940871    5.043808    -0.420441
C     2.107459    0.005088    0.041186
N     3.264851    0.005224    0.030043
C     4.701043    0.004877    0.005942
H     5.039803    -0.833879    -0.608291
H     5.066927    -0.103603    1.030260
H     5.043983    0.949980    -0.423480
C     -0.005915    -2.107869    0.043604
N     -0.005348    -3.265300    0.032892
C     -0.005775    -4.701562    0.006952
H     -0.843116    -5.039523    -0.609474
H     -0.113850    -5.068938    1.030763
H     0.940772    -5.043796    -0.420294
C     -2.107323    -0.004926    0.042393
N     -3.264760    -0.005152    0.031604
C     -4.700924    -0.004914    0.005226
H     -5.034720    -0.612069    -0.840594
H     -5.047628    1.025815    -0.107876
H     -5.067566    -0.427019    0.944555
C     0.000411    0.000447    2.094907
N     0.000461    0.000605    3.252168
C     0.000010    0.000016    4.689020
H     0.608298    -0.838958    5.037921
H     -1.030623    -0.108043    5.037768
H     0.422112    0.945927    5.039233
O     -0.000219    -0.000021    -2.058636
C     0.777343    -0.823107    -2.907629
C     0.495280    -0.525331    -4.188962
C     -0.495574    0.525377    -4.188961
C     -0.777759    0.823124    -2.907646
H     1.433088    -1.521344    -2.414687
H     0.933723    -0.992390    -5.060873
H     -1.433796    1.521137    -2.414752
H     -0.934023    0.992432    -5.060872
