15

Cr     0.051496    -0.020226    -0.328994
O     -0.156335    2.039474    -0.485856
H     -0.994115    2.375722    -0.843560
H     -0.154747    2.164077    0.501042
O     2.065717    0.319917    -0.536937
H     2.489008    -0.522231    -0.781607
H     2.214386    0.432860    0.437809
O     0.472736    -1.989511    0.110322
H     -0.317115    -2.535579    -0.052070
H     0.501215    -1.792475    1.091806
O     -1.923716    -0.453511    0.230472
H     -2.623269    0.133836    -0.099508
H     -1.698611    -0.194481    1.178614
S     0.324093    0.351761    1.962143
F     -0.250746    -0.309633    -2.073673
