24

Cr     -0.012220    0.013927    0.025980
N     -0.252635    2.100059    0.405386
H     -1.111575    2.359559    0.906771
H     0.499467    2.548384    0.944487
H     -0.298837    2.631033    -0.473995
N     2.083562    0.250399    -0.336141
H     2.355460    1.227356    -0.506590
H     2.696976    -0.052715    0.431433
H     2.440494    -0.261687    -1.154068
N     0.233689    -2.083496    -0.263356
H     1.162270    -2.451617    -0.020593
H     -0.425751    -2.690091    0.241542
H     0.110840    -2.332371    -1.253850
N     -2.119265    -0.294235    0.235490
H     -2.481288    -1.079140    -0.322541
H     -2.422586    -0.507875    1.194334
H     -2.704680    0.505741    -0.038976
N     0.311114    -0.214389    2.096986
H     -0.442300    0.160308    2.688071
H     0.408276    -1.195654    2.387739
H     1.159226    0.246105    2.452562
O     -0.333783    0.303602    -1.991344
H     -1.200155    0.375348    -2.441412
H     0.342622    0.442614    -2.685073
