17

Cr     -0.004297    0.000238    -0.015827
Cl     0.346752    2.315621    -0.390612
Cl     2.307749    -0.387892    -0.373922
Cl     -0.355144    -2.315125    0.358988
Cl     -2.316176    0.388350    0.342405
C     0.335276    0.299308    2.019594
N     0.518077    0.471041    3.157230
C     0.730413    0.686722    4.537128
H     1.387728    -0.091849    4.936357
H     -0.226814    0.656119    5.066743
H     1.195841    1.665190    4.690857
C     -0.342513    -0.297776    -2.051792
N     -0.522169    -0.469434    -3.189950
C     -0.724833    -0.687286    -4.570972
H     -1.402821    -1.534011    -4.716070
H     0.232721    -0.905875    -5.053731
H     -1.161940    0.206584    -5.026554
