19

Cr     -0.024530    0.003483    -0.008735
N     0.634528    2.000088    -0.226825
H     0.081655    2.857122    -0.434857
N     1.824866    2.303895    -0.088905
N     2.698906    1.128635    0.208040
N     2.072686    0.066212    0.289085
H     2.734876    -0.709098    0.498430
N     -0.370236    -1.990177    0.624763
H     -0.375257    -2.866778    0.063803
N     -0.575456    -2.262475    1.812637
N     -0.597207    -1.056688    2.693593
N     -0.362480    -0.007214    2.084568
H     -0.388289    0.791362    2.751533
N     -2.017492    0.207093    -0.684683
H     -2.876339    0.440872    -0.145106
N     -2.304073    0.091888    -1.881760
N     -1.128586    -0.257824    -2.734361
N     -0.066416    -0.298790    -2.103362
H     0.712117    -0.535050    -2.752590
