25
03/24/2023 16:57, XYZ structure generated by mol3D Class, molSimplify
Cr     -0.062114    -0.265161    -0.025574
N     0.271038    1.689204    -0.481894
P     0.319170    2.983080    0.329516
H     0.127631    3.109226    1.721634
H     0.573543    4.219965    -0.287696
N     1.849701    -0.541695    0.278907
P     3.334602    -0.742025    0.514491
H     4.138589    -1.623190    -0.235836
H     4.072234    -0.075227    1.513240
N     -0.395322    -2.219515    0.430750
P     -0.442889    -3.513463    -0.380574
H     -0.250733    -3.639674    -1.772601
H     -0.697419    -4.750334    0.236602
N     -1.973879    0.011366    -0.330041
P     -3.458791    0.211859    -0.565437
H     -4.196613    -0.454990    -1.564008
H     -4.262581    1.093153    0.184948
N     -0.321578    0.211344    1.960880
P     -0.628650    -0.596740    3.219478
H     -0.828059    -1.991403    3.293470
H     -0.746848    0.024959    4.474793
N     0.197372    -0.741641    -2.011984
P     0.504297    0.066389    -3.270649
H     0.703483    1.461078    -3.344773
H     0.622539    -0.555398    -4.525917
