27

Cr     -0.000001    -0.000003    0.002569
I     1.040659    2.689153    -0.056670
I     2.700405    -0.964547    0.049112
I     -1.040660    -2.689161    -0.056715
I     -2.700403    0.964541    0.049067
C     -0.000009    -0.000000    4.951284
C     -0.434204    1.115317    4.239201
C     -0.421460    1.076323    2.848202
N     -0.000019    -0.000004    2.157023
C     0.421423    -1.076331    2.848202
C     0.434178    -1.115320    4.239202
H     -0.000008    0.000001    6.038647
H     -0.783902    2.011531    4.741125
H     -0.752134    1.917750    2.255065
H     0.752080    -1.917764    2.255064
H     0.783872    -2.011535    4.741124
C     0.000013    0.000004    -4.949532
C     -0.545264    1.065401    -4.237686
C     -0.524315    1.030093    -2.846668
N     0.000014    0.000003    -2.155432
C     0.524347    -1.030085    -2.846668
C     0.545294    -1.065393    -4.237687
H     0.000014    0.000003    -6.036610
H     -0.984861    1.921356    -4.739335
H     -0.932864    1.838741    -2.256273
H     0.932908    -1.838729    -2.256275
H     0.984897    -1.921344    -4.739336
