11

Cr     -0.000211    0.002406    -0.000320
Cl     -0.429339    2.293462    0.387649
Cl     2.065495    0.230242    1.122495
Cl     0.429959    -2.288806    -0.388311
Cl     -2.065844    -0.225327    -1.121926
O     -0.836024    -0.281723    1.882611
H     0.015673    -0.320475    2.368232
H     -1.143056    0.642516    2.000954
O     0.836010    0.286260    -1.882548
H     -0.015306    0.324731    -2.368916
H     1.142644    -0.638325    -1.999919
