15

Cr     -0.130767    -0.057145    0.035685
O     0.102962    1.923852    0.395372
H     0.810340    2.172236    1.018510
H     0.202877    2.458859    -0.416156
O     1.892409    -0.249715    -0.208159
H     2.228639    -0.379809    -1.115272
H     2.408298    -0.787007    0.420840
O     -0.540786    -2.034740    -0.279700
H     -0.363399    -2.687708    0.421607
H     -0.428696    -2.430505    -1.162662
O     -2.102343    0.315398    0.279196
H     -2.426634    0.263506    1.198789
H     -2.741823    -0.128406    -0.306541
I     0.176464    -0.642204    2.684127
I     -0.291993    0.375878    -2.654405
