17

Cr     0.000057    -0.000738    0.000039
I     -0.000039    2.802265    0.012175
I     2.809271    -0.000854    -0.003355
I     0.000190    -2.803379    -0.012242
I     -2.809189    -0.000956    0.003415
N     0.001090    0.010126    2.029973
C     0.000793    0.005671    3.183152
C     -0.000614    0.000687    4.637496
H     0.297503    0.984929    5.012250
H     -1.003605    -0.234600    5.007289
H     0.703293    -0.751529    5.007256
N     -0.000983    -0.011060    -2.030066
C     -0.000755    -0.006424    -3.183196
C     0.000556    0.000023    -4.637480
H     -0.264254    0.996673    -5.004052
H     0.994958    -0.265877    -5.009458
H     -0.728273    -0.724958    -5.013196
