15

Cr     -0.008126    -0.113279    -0.017441
S     0.276727    2.396299    0.360772
H     1.314564    2.441834    1.221220
H     0.990070    2.778184    -0.718719
S     2.477500    -0.546295    -0.469635
H     3.091731    0.066327    0.563030
H     2.800603    0.385361    -1.389952
S     -0.445102    -2.601486    -0.360948
H     0.487656    -3.144993    0.448533
H     0.232847    -2.835260    -1.503779
S     -2.481720    0.270523    0.421660
H     -2.729852    -0.692768    1.333966
H     -3.021397    -0.405589    -0.614266
F     0.282055    -0.398351    1.720957
F     -0.280763    0.167713    -1.758998
