17
03/24/2023 16:57, XYZ structure generated by mol3D Class, molSimplify
Cr     -0.000004    0.000218    0.000073
S     0.421281    2.551702    -0.393643
H     -0.450877    3.147276    0.458243
H     -0.320744    2.820929    -1.497209
S     2.554090    -0.371557    0.414613
H     3.138117    0.297504    -0.611301
H     2.864710    0.572976    1.337967
S     -0.421725    -2.551321    0.394156
H     0.321397    -2.820942    1.496866
H     0.449179    -3.147239    -0.458742
S     -2.554202    0.371322    -0.414004
H     -2.864308    -0.572117    -1.338639
H     -3.137887    -0.299413    0.611004
C     -0.313072    0.355669    2.128182
O     -0.477064    0.541510    3.223873
C     0.313500    -0.355199    -2.127958
O     0.477755    -0.540951    -3.223625
