35

Cr     -0.042805    0.167917    0.129741
C     0.325005    2.016829    1.019374
N     0.534762    3.036465    1.528096
C     0.795952    4.297843    2.163906
H     1.491311    4.867267    1.540915
H     1.236691    4.108756    3.146598
H     -0.147851    4.839673    2.270066
C     2.000298    -0.079525    -0.219144
N     3.135651    -0.220274    -0.400955
C     4.543763    -0.395992    -0.625233
H     4.687672    -0.860287    -1.604698
H     4.945115    -1.040325    0.161756
H     5.028461    0.583754    -0.596066
C     -0.398173    -1.659200    -0.809331
N     -0.593486    -2.683725    -1.314205
C     -0.834006    -3.956422    -1.935534
H     -1.709008    -3.870142    -2.585590
H     -1.016524    -4.697603    -1.152474
H     0.047236    -4.233139    -2.520755
C     -2.088068    0.440145    0.443401
N     -3.222145    0.578714    0.635721
C     -4.628223    0.747535    0.877882
H     -4.785185    1.707441    1.377403
H     -4.973792    -0.071923    1.514089
H     -5.153614    0.729293    -0.080951
C     0.183085    -0.775188    1.958863
N     0.306052    -1.302096    2.982862
C     0.458370    -1.956294    4.251702
H     1.058101    -2.859614    4.110238
H     -0.532881    -2.215903    4.633338
H     0.961651    -1.272012    4.940318
P     -0.350891    1.307766    -2.128023
H     0.754441    1.274279    -2.998098
H     -1.378104    0.788389    -2.937032
H     -0.664839    2.678980    -2.098460
