25

Cr     -0.017770    -0.021013    -0.040937
P     -0.456871    2.550928    -0.370362
H     -1.698580    3.050397    0.069269
H     0.450812    3.419659    0.266432
H     -0.413592    3.008254    -1.703231
P     2.556306    0.335888    -0.423136
H     3.024637    1.664014    -0.466212
H     3.410713    -0.246817    0.533035
H     3.060113    -0.192977    -1.628595
P     0.377071    -2.580178    0.397346
H     1.700891    -3.001208    0.632128
H     -0.308002    -3.132300    1.497076
H     -0.022527    -3.429860    -0.653937
P     -2.591219    -0.382716    0.383669
H     -3.056710    -1.710366    0.462528
H     -3.120875    0.186757    1.557725
H     -3.431703    0.161490    -0.608833
P     0.327357    0.444558    2.510296
H     1.554580    1.028620    2.880635
H     -0.599778    1.321009    3.107747
H     0.265681    -0.669554    3.370218
N     -0.225463    -0.399580    -2.135215
H     -1.189599    -0.615065    -2.413231
H     0.040802    0.400663    -2.719706
H     0.333749    -1.184729    -2.487416
