27

Cr     -0.000278    -0.000572    -0.177976
O     0.306195    1.986800    0.016654
H     1.179748    2.406588    0.148694
H     -0.363577    2.692859    -0.089625
O     1.976049    -0.286232    0.000466
H     2.643594    -0.457980    -0.696273
H     2.400197    -0.409558    0.874913
O     -0.312654    -1.986055    0.022402
H     0.368731    -2.686127    -0.041134
H     -1.187278    -2.413179    0.120261
O     -1.989051    0.296772    -0.140477
H     -2.507070    0.420092    0.682911
H     -2.588818    0.462669    -0.897850
O     -0.039763    0.002554    1.964640
H     0.035199    0.781555    2.552821
H     -0.184337    -0.767684    2.551386
C     0.015510    0.004048    -4.972388
C     0.709124    0.988692    -4.258309
C     0.700550    0.957136    -2.871827
N     0.032871    -0.011847    -2.176227
C     -0.639426    -0.974468    -2.876302
C     -0.666925    -0.989999    -4.261596
H     0.007763    0.009937    -6.059490
H     1.250715    1.781336    -4.766726
H     1.219472    1.716146    -2.300044
H     -1.151869    -1.741870    -2.311880
H     -1.212487    -1.779035    -4.770439
