19

Cr     0.000094    0.000089    0.000186
N     -0.000002    2.033257    0.000278
C     -0.000080    3.185734    0.000312
H     -0.000134    4.271240    0.000341
N     2.033265    0.000183    0.000232
C     3.185743    0.000155    0.000211
H     4.271248    0.000135    0.000204
N     0.000178    -2.033088    0.000082
C     0.000179    -3.185565    -0.000020
H     0.000183    -4.271070    -0.000092
N     -2.033080    -0.000030    0.000119
C     -3.185558    -0.000119    0.000030
H     -4.271064    -0.000180    -0.000035
N     0.000045    -0.000019    2.033357
C     0.000001    -0.000115    3.185835
H     -0.000032    -0.000195    4.271340
N     0.000139    0.000186    -2.032990
C     0.000165    0.000240    -3.185468
H     0.000188    0.000294    -4.270973
