32

Cr     -0.118130    0.107453    0.110976
N     0.086281    2.234526    0.319496
H     -0.160331    2.529552    1.271619
H     -0.501311    2.804625    -0.299264
H     1.035400    2.596015    0.171732
N     1.965631    -0.180394    -0.300334
H     2.487415    -0.353909    0.566164
H     2.445120    0.603437    -0.757232
H     2.172828    -0.988251    -0.898152
N     -0.334297    -2.014058    -0.128396
H     -0.044771    -2.371061    -1.045643
H     -1.290854    -2.368393    -0.018551
H     0.224893    -2.535820    0.556835
N     -2.227361    0.388332    0.374740
H     -2.597332    1.257433    -0.025759
H     -2.459778    0.440804    1.373174
H     -2.833341    -0.345714    -0.009087
C     0.576141    -0.509452    4.903212
C     -0.430687    -1.212623    4.233672
C     -0.602507    -1.013862    2.870391
N     0.171370    -0.156504    2.147365
C     1.147429    0.524763    2.811104
C     1.376464    0.374692    4.171972
H     0.732847    -0.646417    5.969782
H     -1.078319    -1.908877    4.757983
H     -1.381349    -1.553471    2.340549
H     1.758916    1.209850    2.231649
H     2.169863    0.943986    4.646872
P     -0.503142    0.467893    -2.523856
H     -1.435357    1.457849    -2.897352
H     -0.971541    -0.635193    -3.266748
H     0.619836    0.852776    -3.284429
