13

Cr     0.000147    0.000146    0.199799
C     -0.000770    2.077413    -0.027636
N     -0.001532    3.233587    -0.215697
C     2.077403    -0.001188    -0.027670
N     3.233573    -0.002221    -0.215742
C     -0.001117    -2.078864    -0.009910
N     -0.002101    -3.236611    -0.187996
C     -2.078860    -0.000695    -0.009891
N     -3.236608    -0.001407    -0.187959
C     0.009560    0.009535    2.232372
N     0.015380    0.015341    3.403693
C     -0.006300    -0.006282    -1.912030
O     -0.008777    -0.008754    -3.051997
