31
03/24/2023 16:57, XYZ structure generated by mol3D Class, molSimplify
Cr     0.007192    -0.022257    -0.023345
C     0.275796    2.085063    0.382994
H     -0.210629    2.453790    1.294364
N     0.890537    3.058006    -0.214844
H     1.410197    2.938414    -1.084033
H     0.902177    4.019092    0.141343
C     2.110407    -0.257244    -0.453332
H     2.578738    0.444122    -1.155863
N     2.990391    -1.116173    -0.041929
H     2.762436    -1.862909    0.614129
H     3.966914    -1.117203    -0.353209
C     -0.261193    -2.129642    -0.429575
H     0.226154    -2.498602    -1.340356
N     -0.876682    -3.102392    0.167804
H     -1.397205    -2.982518    1.036436
H     -0.888052    -4.063562    -0.188167
C     -2.096004    0.212993    0.406648
H     -2.564518    -0.488598    1.108838
N     -2.975811    1.072257    -0.004424
H     -2.747696    1.819216    -0.660176
H     -3.952354    1.073327    0.306797
C     0.242958    -0.405863    2.090479
H     -0.511589    -1.023735    2.594914
N     1.130194    -0.014563    2.951426
H     1.919300    0.578792    2.695542
H     1.098432    -0.259660    3.946120
C     -0.228674    0.361055    -2.137207
H     0.525577    0.979272    -2.641670
N     -1.115676    -0.030746    -2.998163
H     -1.904524    -0.624427    -2.742240
H     -1.084007    0.214297    -3.992872
