17

Cr     0.010801    -0.092889    0.002605
N     0.537304    3.057647    0.381760
C     0.336602    1.909923    0.261612
N     3.147742    -0.645550    0.460338
C     2.006708    -0.443459    0.292204
N     -0.491026    -3.246557    -0.391057
C     -0.304649    -2.097314    -0.262343
N     -3.123457    0.463620    -0.482174
C     -1.985107    0.260385    -0.296992
P     -0.418910    -0.497620    2.374488
H     -1.661393    -1.063410    2.729590
H     -0.393453    0.567050    3.304214
H     0.430732    -1.398002    3.052030
P     0.391572    0.308461    -2.375302
H     -0.343241    1.351238    -2.977198
H     0.135636    -0.713675    -3.317125
H     1.684958    0.678017    -2.801358
