37

Cr     0.000017    -0.000060    -0.045090
O     -0.000193    -0.000379    1.999970
H     0.786546    0.014556    2.577823
H     -0.787068    -0.012961    2.577857
C     0.003173    2.105678    -0.032636
N     0.003682    3.263169    -0.010095
C     0.005233    4.700239    0.004188
H     0.843283    5.052904    -0.603179
H     0.113081    5.040984    1.037461
H     -0.941301    5.053975    -0.414094
C     2.108054    0.005354    -0.002563
N     3.265968    0.005272    0.007546
C     4.703611    0.004766    0.003698
H     5.048864    -0.835082    -0.605751
H     5.057344    -0.103890    1.032737
H     5.050947    0.950809    -0.420646
C     -0.003147    -2.105604    -0.032696
N     -0.003691    -3.263305    -0.010125
C     -0.005234    -4.700243    0.004179
H     -0.843333    -5.052909    -0.603162
H     -0.113055    -5.040974    1.037456
H     0.941320    -5.053956    -0.414031
C     -2.107859    -0.005509    -0.001086
N     -3.265814    -0.005606    0.009068
C     -4.703428    -0.004467    0.003299
H     -5.046458    -0.612604    -0.838382
H     -5.050868    1.026848    -0.104441
H     -5.058785    -0.427113    0.947219
O     -0.000138    0.000007    -2.046943
C     0.782007    -0.826718    -2.899333
C     0.496715    -0.526264    -4.177580
C     -0.496946    0.526320    -4.177583
C     -0.782278    0.826753    -2.899296
H     1.435242    -1.525206    -2.404399
H     0.934163    -0.993538    -5.050483
H     -1.435904    1.524976    -2.404378
H     -0.934481    0.993578    -5.050459
