25

Cr     0.043425    -0.032674    -0.034910
O     0.466907    1.910391    -0.441132
H     -0.238611    2.588502    -0.299228
O     1.550710    2.355871    0.418405
H     2.116779    2.858273    -0.218634
O     1.996414    -0.468473    0.268765
H     2.433275    0.044557    0.992274
O     2.733263    -0.062507    -0.916142
H     3.360121    -0.818789    -1.033951
O     -0.380180    -1.975810    0.371424
H     0.325783    -2.653635    0.230363
O     -1.463102    -2.422051    -0.488575
H     -2.029262    -2.924745    0.148144
O     -1.909034    0.402423    -0.338824
H     -2.345563    -0.110494    -1.062641
O     -2.647247    -0.002272    0.845420
H     -3.273854    0.754394    0.962193
O     -0.052974    0.277954    1.978360
H     -0.644056    -0.314313    2.503887
O     -0.593110    1.601983    2.224215
H     -0.000568    1.933841    2.943065
O     0.138403    -0.344418    -2.048366
H     0.727722    0.248527    -2.575115
O     0.681013    -1.667488    -2.293553
H     0.088631    -2.001166    -3.011693
