21

Cr     0.000007    0.000137    0.000047
O     0.280633    1.959173    -0.339530
H     1.156520    2.396409    -0.395060
H     -0.404156    2.661130    -0.342021
O     1.982863    -0.293333    -0.243028
H     2.440498    -0.357488    -1.108116
H     2.663235    -0.459874    0.444131
O     -0.280366    -1.958858    0.340205
H     0.404225    -2.661018    0.340681
H     -1.156311    -2.395987    0.395737
O     -1.982875    0.293473    0.243092
H     -2.440410    0.358172    1.108194
H     -2.663373    0.459375    -0.444094
N     0.249122    0.336632    2.083788
H     -0.259893    1.156765    2.440303
H     -0.042596    -0.459480    2.666891
H     1.223733    0.519642    2.356214
N     -0.249163    -0.336382    -2.083801
H     -1.223711    -0.519660    -2.356271
H     0.042318    0.459823    -2.666897
H     0.260115    -1.156310    -2.440405
