13

Cr     0.001226    0.001286    0.000107
I     0.019753    2.823091    -0.336805
I     2.816813    -0.014315    0.018499
I     -0.017915    -2.824417    0.324961
I     -2.814891    0.016438    -0.012518
N     -0.014437    0.219641    2.077006
H     -0.861538    -0.194719    2.464707
H     0.003494    1.218301    2.290816
H     0.804681    -0.231858    2.482621
N     0.013881    -0.219418    -2.076171
H     -0.809626    0.225467    -2.480189
H     0.001707    -1.219134    -2.285455
H     0.856852    0.199638    -2.467578
