25

Cr     0.000315    -0.001230    0.055128
P     -0.433363    2.511713    0.507500
H     -1.105891    2.811770    1.708707
H     0.698341    3.346341    0.588949
H     -1.226874    3.185911    -0.441544
P     2.531356    0.371223    -0.339029
H     2.971045    1.707215    -0.414001
H     3.397662    -0.169549    0.631670
H     3.054358    -0.177415    -1.526754
P     0.343890    -2.540286    -0.326025
H     1.668514    -3.019605    -0.297034
H     -0.286643    -3.381701    0.611978
H     -0.128751    -3.061408    -1.546459
P     -2.536492    -0.415419    0.368403
H     -3.060376    -1.545094    -0.290972
H     -3.000292    -0.603204    1.685034
H     -3.384968    0.607424    -0.099079
P     0.468948    -0.330749    2.579093
H     1.285347    0.648309    3.179546
H     -0.649239    -0.343182    3.435413
H     1.132125    -1.519606    2.941872
P     -0.373318    0.398458    -2.476297
H     0.193884    -0.556681    -3.342423
H     -1.707317    0.446480    -2.927221
H     0.149295    1.602372    -2.989076
