25

Cr     -0.000450    -0.005061    0.000386
N     0.005736    1.957158    0.007798
C     0.002069    3.150042    0.006549
O     -0.000602    4.355044    0.003237
N     1.970465    -0.009497    0.000183
C     3.162808    0.016235    0.008172
O     4.368748    0.037700    0.015220
N     -0.008435    -1.967916    -0.005924
C     -0.023356    -3.160749    0.001410
O     -0.036951    -4.365707    0.010208
N     -1.971256    0.004435    0.000559
C     -3.163396    0.038306    0.008486
O     -4.369142    0.068033    0.015537
N     0.000006    0.006375    2.077851
C     0.000308    0.004653    3.230591
C     0.000087    0.001077    4.687583
H     -0.159046    -1.016186    5.058761
H     0.959275    0.370315    5.063577
H     -0.800962    0.645219    5.063359
N     -0.000213    -0.015974    -2.077316
C     0.000236    -0.011882    -3.230043
C     0.000273    -0.002595    -4.686992
H     -0.586763    0.844798    -5.054581
H     1.024921    0.086076    -5.061294
H     -0.438178    -0.930093    -5.068267
