21

Cr     0.000072    0.009533    0.000029
C     0.000028    2.076957    -0.000408
N     -0.000083    3.247477    -0.000899
C     2.067459    0.008876    -0.028861
N     3.237785    0.008099    -0.049757
C     0.000128    -2.058354    0.000600
N     0.000269    -3.228858    0.001143
C     -2.067403    0.008931    0.028973
N     -3.237727    0.008395    0.049946
C     0.015796    0.005761    2.071210
N     0.015820    0.001117    3.235102
C     0.003829    -0.010065    4.649191
H     0.607050    -0.846302    5.014932
H     -1.024334    -0.122568    5.005878
H     0.418289    0.928835    5.028138
C     -0.015597    0.005768    -2.071008
N     -0.015502    0.001233    -3.234898
C     -0.003710    -0.009915    -4.648987
H     -0.607216    -0.845978    -5.014672
H     1.024373    -0.122655    -5.005835
H     -0.418018    0.929090    -5.027850
