14

Cr     -0.118035    0.043520    -0.062177
N     0.352853    3.184037    -0.618171
C     0.178031    2.050821    -0.384719
N     3.038568    -0.477083    -0.506072
C     1.902067    -0.283204    -0.306849
N     -0.554762    -3.111376    0.430308
C     -0.400318    -1.960535    0.285453
N     -3.237421    0.583348    0.526975
C     -2.104551    0.387308    0.309770
C     0.202028    0.350495    1.917069
O     0.375466    0.530272    3.024402
S     -0.463939    -0.335365    -2.530658
H     0.528138    0.481200    -2.943808
H     0.301861    -1.443443    -2.614270
