20

Cr     0.023201    0.023372    0.005727
N     -0.427493    2.121535    0.342698
H     0.396343    2.663559    0.606447
H     -1.180134    2.411704    0.970357
H     -0.654146    2.420271    -0.610352
N     2.127185    0.430505    0.357428
H     2.409557    0.735296    -0.579857
H     2.686049    -0.395814    0.574341
H     2.404810    1.148281    1.029231
N     0.457209    -2.079696    -0.299972
H     0.701909    -2.066431    -1.295724
H     -0.346887    -2.702047    -0.204450
H     1.224264    -2.520435    0.210816
N     -2.084975    -0.381288    -0.316914
H     -2.668178    0.445634    -0.180820
H     -2.559267    -1.153664    0.155339
H     -2.091329    -0.556532    -1.326256
C     -0.278984    -0.369152    2.260949
O     -0.433146    -0.573005    3.366120
S     0.293981    0.397917    -2.118040
