25

Cr     0.007704    0.009276    0.000877
P     -0.443586    2.563002    0.400816
H     -1.133214    2.875209    1.589319
H     0.675477    3.416149    0.475701
H     -1.237309    3.198319    -0.575257
P     2.573866    0.377268    -0.384317
H     3.044443    1.704657    -0.432152
H     3.415356    -0.201825    0.586674
H     3.090151    -0.162338    -1.579316
P     0.320388    -2.567144    -0.374164
H     1.626215    -3.049241    -0.595627
H     -0.120818    -3.385569    0.684974
H     -0.383178    -3.101260    -1.472173
P     -2.564516    -0.407381    0.371827
H     -3.031020    -1.736498    0.330178
H     -3.083723    0.045819    1.601306
H     -3.413648    0.230197    -0.555230
N     0.391501    -0.176016    2.095114
H     -0.424573    0.040376    2.678346
H     0.662028    -1.125155    2.378296
H     1.139389    0.428182    2.455193
N     -0.241306    0.235678    -2.110240
H     -1.196162    0.038577    -2.431633
H     -0.056037    1.190518    -2.439385
H     0.359029    -0.361294    -2.690767
