25
03/24/2023 16:57, XYZ structure generated by mol3D Class, molSimplify
Cr     -0.005694    0.001390    -0.003837
N     -0.239336    2.104520    0.370313
H     -1.188901    2.365861    0.664147
H     0.365929    2.480650    1.111073
H     -0.058903    2.707175    -0.442232
N     2.107966    0.255042    -0.280632
H     2.406494    1.238470    -0.281097
H     2.704710    -0.193497    0.426336
H     2.454247    -0.111819    -1.176373
N     0.228877    -2.115765    -0.295523
H     1.209411    -2.423825    -0.296178
H     -0.222494    -2.699882    0.420073
H     -0.147600    -2.475068    -1.182040
N     -2.117201    -0.338541    0.204236
H     -2.468265    -1.135834    -0.341781
H     -2.410998    -0.544399    1.167328
H     -2.718150    0.445987    -0.079063
N     0.283465    -0.238605    2.113361
H     -0.455637    0.173787    2.696987
H     0.339110    -1.216982    2.422317
H     1.148830    0.185336    2.471372
N     -0.259742    0.334702    -2.111659
H     -1.237817    0.507002    -2.375107
H     0.252220    1.142073    -2.489838
H     0.029480    -0.447767    -2.712145
