13

Cr     0.125793    -0.232586    0.056207
F     0.393571    1.607933    0.225788
F     1.945249    -0.499937    0.116807
F     -0.156399    -2.045465    0.018455
F     -1.708165    0.065216    -0.115894
P     0.400357    0.215877    2.489536
H     1.586453    0.943415    2.703610
H     -0.492522    1.118332    3.119511
H     0.533033    -0.666597    3.604922
P     -0.426012    -0.151430    -2.398131
H     0.328897    -0.345963    -3.597673
H     -1.468440    -1.046325    -2.715758
H     -1.063761    1.040010    -2.813352
