11

Cr     -0.000289    -0.000199    -0.001818
C     0.060304    2.045457    -0.326253
O     0.091035    3.159025    -0.508063
C     2.045604    0.068538    0.319483
O     3.159294    0.104113    0.499602
C     -0.059528    -2.046069    0.320595
O     -0.089510    -3.159836    0.501305
C     -2.046100    -0.068054    -0.323459
O     -3.159821    -0.103013    -0.503515
Cl     -0.343966    0.343614    2.134031
Cl     0.342978    -0.343576    -2.138049
