62

Cr     0.010747    0.007278    0.138082
C     0.051835    -0.081558    -2.032191
N     0.077976    -0.211262    -3.184431
C     0.092733    -0.382587    -4.610137
H     -0.553691    -1.225182    -4.868018
H     1.117394    -0.585977    -4.931032
H     -0.274670    0.532561    -5.081343
C     -0.593250    4.938265    -0.065975
C     -1.203868    4.166624    0.924888
C     -0.979972    2.796676    0.949875
N     -0.183197    2.158839    0.054779
C     0.395228    2.918210    -0.906451
C     0.220193    4.293618    -0.998446
H     -0.751320    6.011876    -0.112058
H     -1.848275    4.616451    1.673937
H     -1.445031    2.184517    1.710840
H     1.013758    2.408700    -1.631438
H     0.717103    4.843059    -1.791272
C     4.999097    -0.053958    0.132006
C     4.264627    -0.660229    1.152472
C     2.877507    -0.612498    1.112366
N     2.185294    0.002964    0.117802
C     2.911861    0.567073    -0.877900
C     4.300786    0.565977    -0.904942
H     6.084758    -0.071814    0.140655
H     4.754731    -1.171002    1.974778
H     2.296597    -1.092546    1.887782
H     2.362346    1.022457    -1.689602
H     4.819508    1.040026    -1.731595
C     -0.137611    -4.911764    -0.516798
C     -1.262174    -4.213903    -0.073115
C     -1.176165    -2.841228    0.119888
N     -0.034061    -2.135710    -0.086939
C     1.048437    -2.822972    -0.532079
C     1.035049    -4.193685    -0.754542
H     -0.176150    -5.984828    -0.678193
H     -2.201905    -4.721595    0.118657
H     -2.038569    -2.280230    0.450545
H     1.942347    -2.245514    -0.715830
H     1.935632    -4.683456    -1.109524
C     -4.961932    0.316035    0.124064
C     -4.273717    0.046644    1.308613
C     -2.888507    -0.053157    1.279488
N     -2.156710    0.099029    0.145309
C     -2.837150    0.375124    -0.994291
C     -4.221379    0.484846    -1.045858
H     -6.044810    0.396194    0.114728
H     -4.798893    -0.086161    2.248767
H     -2.335866    -0.261521    2.185322
H     -2.249673    0.519953    -1.889630
H     -4.703921    0.700962    -1.993280
C     0.598111    -0.048270    5.020857
C     0.985175    1.054176    4.256445
C     0.772079    1.035702    2.883915
N     0.183255    -0.008378    2.247090
C     -0.164345    -1.088366    2.994046
C     0.021891    -1.141881    4.369488
H     0.748549    -0.058880    6.096434
H     1.451959    1.921454    4.711910
H     1.092809    1.863664    2.265382
H     -0.595427    -1.928311    2.463830
H     -0.279747    -2.029587    4.915425
