39

Cr     -0.023470    -0.089108    0.004176
N     0.176066    2.028137    0.238568
H     -0.186811    2.348583    1.142973
H     -0.338853    2.555697    -0.474501
H     1.131631    2.396779    0.199050
N     2.075252    -0.424706    -0.245871
H     2.688898    0.360826    -0.008896
H     2.295733    -0.645602    -1.222500
H     2.435242    -1.208496    0.308668
N     -0.221002    -2.207649    -0.231820
H     0.322198    -2.736859    0.458766
H     0.110914    -2.520119    -1.150906
H     -1.171671    -2.584083    -0.158910
N     -2.125003    0.252457    0.248966
H     -2.348288    0.530776    1.210491
H     -2.729413    -0.554502    0.065288
H     -2.494633    0.995660    -0.353566
C     0.522549    -0.715147    4.835725
C     -0.496533    -1.375454    4.141652
C     -0.619635    -1.176553    2.773536
N     0.211835    -0.362482    2.065848
C     1.198718    0.273402    2.754941
C     1.382635    0.125433    4.122348
H     0.642772    -0.851163    5.906929
H     -1.189993    -2.036466    4.651999
H     -1.408997    -1.678818    2.222977
H     1.858930    0.922812    2.189746
H     2.187133    0.661593    4.615964
C     -0.560336    0.558327    -4.828396
C     -1.421636    -0.285696    -4.120413
C     -1.237343    -0.443893    -2.753897
N     -0.250103    0.186723    -2.060714
C     0.584613    1.001648    -2.764098
C     0.462731    1.209353    -4.131124
H     -0.682009    0.703077    -5.898261
H     -2.226942    -0.817131    -4.618122
H     -1.896867    -1.097194    -2.192192
H     1.376026    1.498067    -2.210699
H     1.159888    1.869741    -4.637760
