24

Cr     -0.000399    -0.029854    0.024712
N     -0.286701    2.075045    0.324811
H     -1.274015    2.346676    0.408471
H     0.150603    2.449170    1.176847
H     0.074483    2.664505    -0.435031
N     2.113481    0.214193    0.299513
H     2.420979    1.194637    0.302127
H     2.477915    -0.168304    1.181658
H     2.689058    -0.235855    -0.424199
N     0.357937    -2.131774    -0.222483
H     1.160790    -2.504491    0.300386
H     -0.427258    -2.739776    0.042414
H     0.550578    -2.377698    -1.202573
N     -2.069354    -0.399014    -0.414713
H     -2.229775    -1.111580    -1.138855
H     -2.613318    -0.727739    0.393375
H     -2.586211    0.424030    -0.747956
N     -0.338289    -0.289258    2.106047
H     -1.182055    0.179722    2.461086
H     -0.452183    -1.274428    2.375490
H     0.417989    0.056469    2.710798
S     0.378843    0.232718    -2.568485
H     -0.634423    0.988125    -3.053826
H     1.330244    1.176491    -2.761045
