67
03/24/2023 16:57, XYZ structure generated by mol3D Class, molSimplify
Cr     -0.022032    -0.014394    0.015194
P     -0.378353    2.404523    -0.385876
C     -0.843617    5.443943    -0.802536
C     0.476166    4.970243    -0.804160
C     0.821612    3.634574    -0.621245
C     -1.893929    3.246712    -0.424010
C     -1.965253    4.622834    -0.619243
H     -1.006300    6.507548    -0.950493
H     1.278689    5.688468    -0.954586
H     1.869554    3.349708    -0.632301
H     -2.810382    2.679111    -0.293405
H     -2.948678    5.086739    -0.631210
P     2.407355    0.382470    0.382391
C     5.438948    0.866263    0.819430
C     4.547969    1.329019    1.797202
C     3.166263    1.172335    1.724921
C     3.711449    -0.084499    -0.659194
C     5.038255    0.193281    -0.342979
H     6.500533    1.037184    0.972033
H     4.958793    1.838375    2.665685
H     2.543886    1.555573    2.528250
H     3.480275    -0.608872    -1.581500
H     5.807552    -0.129754    -1.040360
P     0.317787    -2.430770    0.412302
C     0.722197    -5.465414    0.905548
C     1.673035    -4.578097    1.429673
C     1.612208    -3.196013    1.275016
C     -0.697523    -3.731506    -0.120898
C     -0.398929    -5.060091    0.167309
H     0.863091    -6.528065    1.080107
H     2.508989    -4.992973    1.987846
H     2.392054    -2.575584    1.707188
H     -1.588101    -3.495627    -0.696131
H     -1.076611    -5.827253    -0.199834
P     -2.449376    -0.420746    -0.353114
C     -5.479276    -0.876018    -0.829944
C     -5.016139    -0.837595    0.492594
C     -3.684119    -0.636932    0.843518
C     -3.277012    -0.507271    -1.873150
C     -4.651339    -0.717277    -1.949592
H     -6.540432    -1.036602    -0.996390
H     -5.739548    -0.970681    1.293496
H     -3.406472    -0.619137    1.893298
H     -2.703752    -0.393676    -2.788472
H     -5.107134    -0.760637    -2.935917
P     -0.431225    0.341509    2.439744
C     -0.840372    0.811630    5.479595
C     -0.769264    -0.509639    5.017860
C     -0.580131    -0.857046    3.682818
C     -0.551022    1.859585    3.267403
C     -0.733889    1.933041    4.645983
H     -0.985637    0.975675    6.543305
H     -0.863447    -1.312866    5.744843
H     -0.526432    -1.906661    3.409151
H     -0.489717    2.777331    2.690204
H     -0.801149    2.918817    5.100099
P     0.407185    -0.357888    -2.408877
C     1.070031    -0.732813    -5.416904
C     0.644256    0.531022    -4.986396
C     0.322929    0.832455    -3.665738
C     0.951524    -1.801857    -3.198606
C     1.215773    -1.836218    -4.565336
H     1.300726    -0.864363    -6.469984
H     0.563398    1.324848    -5.725175
H     0.009565    1.840222    -3.410048
H     1.081788    -2.704228    -2.608800
H     1.552785    -2.776006    -4.996392
