24

Cr     -0.012183    0.015334    0.029323
N     -0.228500    2.112971    0.398018
H     -1.101676    2.381603    0.869156
H     0.509325    2.552984    0.962835
H     -0.240984    2.644077    -0.482142
N     2.088181    0.260687    -0.332723
H     2.358541    1.237566    -0.504359
H     2.701852    -0.041443    0.434968
H     2.443214    -0.252976    -1.150485
N     0.224195    -2.088917    -0.263990
H     1.156320    -2.455625    -0.033068
H     -0.428026    -2.697733    0.247094
H     0.090531    -2.334149    -1.253834
N     -2.121434    -0.309211    0.240052
H     -2.484007    -1.079434    -0.337429
H     -2.420067    -0.547538    1.194447
H     -2.707002    0.498330    -0.010732
N     0.296602    -0.222168    2.106554
H     -0.447407    0.177864    2.692961
H     0.364620    -1.204909    2.400067
H     1.157082    0.214729    2.461785
O     -0.336278    0.304391    -1.999393
H     -1.202530    0.372099    -2.449613
H     0.338727    0.462526    -2.689883
