22

Cr     -0.050038    0.037663    0.038557
N     -0.273693    2.145455    0.355152
H     -1.218264    2.411992    0.646817
H     0.358073    2.627981    1.000184
H     -0.152404    2.587417    -0.562514
N     2.052008    0.303523    -0.292730
H     2.395831    1.237796    -0.052652
H     2.711557    -0.349536    0.140173
H     2.189818    0.227809    -1.306598
N     0.157269    -2.058560    -0.354836
H     1.132297    -2.358626    -0.443434
H     -0.277703    -2.735466    0.278863
H     -0.254060    -2.225762    -1.280011
N     -2.163797    -0.216131    0.292368
H     -2.441749    -1.198833    0.363672
H     -2.636482    0.253382    1.069981
H     -2.608557    0.126625    -0.566353
N     0.300980    -0.237445    2.197914
H     -0.458518    0.104778    2.793439
H     0.419535    -1.218814    2.464627
H     1.141464    0.230896    2.549066
F     -0.324641    0.305001    -1.670637
