35

Cr     -0.076342    -0.061230    -0.029662
C     0.225186    1.987569    -0.336317
N     0.391265    3.121010    -0.507926
C     0.597267    4.527547    -0.718347
H     1.360459    4.658099    -1.490496
H     0.928748    4.976289    0.222019
H     -0.346916    4.975386    -1.040418
C     1.968489    -0.409570    -0.316056
N     3.099785    -0.603639    -0.472181
C     4.503403    -0.844292    -0.663710
H     4.630357    -1.826050    -1.128290
H     4.997899    -0.819185    0.311226
H     4.907348    -0.063091    -1.313576
C     -0.372948    -2.105403    0.322700
N     -0.536914    -3.235170    0.519616
C     -0.739288    -4.636486    0.764834
H     -1.707924    -4.928937    0.350023
H     -0.722303    -4.807816    1.844688
H     0.064924    -5.196662    0.279789
C     -2.116531    0.273508    0.308620
N     -3.244631    0.455638    0.498794
C     -4.643515    0.681710    0.737990
H     -4.793745    1.742167    0.958349
H     -4.955396    0.069761    1.588839
H     -5.202637    0.397643    -0.157793
C     0.272980    0.218537    2.004648
N     0.464551    0.374380    3.135926
C     0.701192    0.567470    4.539394
H     1.339130    -0.243318    4.901633
H     -0.259665    0.554994    5.061068
H     1.196795    1.531622    4.681901
N     -0.430160    -0.293887    -2.113243
H     -1.262644    0.204692    -2.442398
H     0.346980    0.040829    -2.690883
H     -0.568947    -1.275509    -2.371357
