25

Cr     -0.165160    0.060545    0.020745
O     0.054462    2.051843    -0.229518
H     -0.734881    2.599440    -0.407050
P     1.557554    3.057433    -0.289666
H     1.951898    2.715255    1.031766
P     2.788658    1.420987    -1.210575
H     2.046935    1.424543    -2.423100
O     1.792930    0.105145    -0.462322
H     2.375655    -0.634902    -0.201505
O     0.001406    -1.912711    0.387596
H     0.127495    -2.524985    -0.365004
P     -0.066207    -2.801557    1.961264
H     -1.411328    -2.427495    2.226610
P     0.784734    -1.081814    3.141186
H     2.050172    -1.157538    2.496186
O     0.130025    0.171883    1.999678
H     0.069018    1.037818    2.453345
O     -2.134994    0.319261    0.337561
H     -2.448861    0.299312    1.263083
P     -3.542013    0.293785    -0.806513
H     -3.198756    1.536713    -1.404537
P     -2.447443    -0.905945    -2.366976
H     -2.388144    -2.067692    -1.552010
O     -0.808235    -0.335374    -1.841481
H     -0.271364    -0.103728    -2.625549
