27

Cr     0.001985    -0.003990    -0.192514
O     0.315480    1.971945    0.018957
H     1.191301    2.391880    0.133321
H     -0.360811    2.677108    -0.040834
O     1.975519    -0.294035    -0.019390
H     2.643066    -0.467578    -0.715902
H     2.399462    -0.425103    0.854048
O     -0.310191    -1.991432    -0.005769
H     0.370767    -2.691659    -0.075372
H     -1.181972    -2.420278    0.109170
O     -1.979494    0.303248    -0.110139
H     -2.466095    0.419713    0.732625
H     -2.603358    0.480778    -0.844943
O     -0.021174    -0.020582    1.954744
H     0.105176    0.743827    2.553070
H     -0.178365    -0.793514    2.534710
C     -0.000489    0.020596    -4.975040
C     0.710706    0.992986    -4.259765
C     0.700237    0.960710    -2.874766
N     0.019448    0.000387    -2.175633
C     -0.668191    -0.952021    -2.879082
C     -0.698203    -0.964488    -4.263678
H     -0.012521    0.030105    -6.062350
H     1.265010    1.776874    -4.767694
H     1.231059    1.712866    -2.305612
H     -1.186561    -1.714033    -2.311669
H     -1.259603    -1.741737    -4.773907
