34

Cr     0.068128    -0.097026    0.049096
C     0.400823    1.947493    -0.209534
N     0.582094    3.084164    -0.341787
C     0.806377    4.494201    -0.504054
H     1.786952    4.642574    -0.964740
H     0.775202    4.968945    0.480548
H     0.020952    4.902356    -1.146133
C     2.108597    -0.414363    0.384600
N     3.235174    -0.598179    0.581469
C     4.631962    -0.829112    0.827521
H     5.012617    -1.515024    0.065497
H     4.742705    -1.269423    1.822366
H     5.159492    0.127224    0.775053
C     -0.267164    -2.140673    0.314540
N     -0.448541    -3.277557    0.439960
C     -0.671432    -4.689243    0.582297
H     -1.290573    -5.030312    -0.252177
H     -1.181748    -4.869515    1.532433
H     0.295925    -5.198901    0.568262
C     -1.975481    0.180526    -0.296868
N     -3.111297    0.324477    -0.472753
C     -4.521461    0.499500    -0.686363
H     -4.782865    1.537954    -0.464975
H     -5.061901    -0.178786    -0.020310
H     -4.749769    0.265870    -1.730108
C     -0.227883    0.220245    2.058955
N     -0.393980    0.389375    3.192369
C     -0.599071    0.599005    4.598152
H     -0.575065    -0.370505    5.103504
H     -1.571763    1.077455    4.742318
H     0.199910    1.243040    4.975910
S     0.444603    -0.535398    -2.423270
H     -0.384780    0.342374    -3.031599
H     1.564107    0.171416    -2.697778
