29

Cr     0.002703    0.001523    0.012470
P     -0.417036    2.504952    0.439283
H     -1.676467    2.831010    0.978164
H     0.457450    3.129191    1.349529
H     -0.339970    3.352134    -0.682246
P     2.522111    0.393144    0.386867
H     3.036060    1.599740    -0.125525
H     2.945928    0.429537    1.728512
H     3.392940    -0.557585    -0.179298
P     0.395133    -2.520947    -0.304083
H     1.546221    -3.053364    0.307592
H     -0.616273    -3.364007    0.194621
H     0.527863    -2.961582    -1.634265
P     -2.507578    -0.342770    -0.459946
H     -2.853419    -1.467929    -1.232979
H     -3.333366    -0.489504    0.670389
H     -3.142297    0.698214    -1.164374
C     -0.296860    -0.343422    2.055547
N     -0.461606    -0.537167    3.187298
C     -0.667257    -0.779534    4.590633
H     0.279271    -1.106612    5.030984
H     -1.427534    -1.558150    4.702398
H     -1.003642    0.149588    5.060245
C     0.309460    0.337039    -2.030638
N     0.478854    0.519714    -3.163539
C     0.689045    0.745657    -4.568807
H     0.020164    0.088288    -5.132084
H     1.732760    0.519952    -4.806832
H     0.467630    1.793674    -4.791644
