14

Cr     -0.088013    -0.131475    0.186393
C     -0.405995    1.917745    -0.192391
N     -0.576725    3.022556    -0.546049
C     1.970907    0.186521    -0.112756
N     3.087036    0.359083    -0.427790
C     0.248960    -2.184097    0.257026
N     0.447435    -3.338767    0.247126
C     -2.143023    -0.447265    0.032587
N     -3.291737    -0.616301    -0.124902
C     -0.035507    0.104009    2.184472
N     -0.001417    0.243900    3.346493
S     -0.065061    -0.229283    -2.618049
H     -0.403870    1.076562    -2.545098
H     1.257023    0.036820    -2.542953
