37

Cr     -0.031574    0.063886    -0.003424
O     -0.095988    2.080456    -0.183866
H     -0.567958    2.518704    0.549739
C     -0.040291    3.005127    -1.354759
H     0.704681    2.603590    -2.038325
H     -1.025186    3.059572    -1.819132
H     0.276790    3.980678    -0.982447
O     1.910414    0.333460    0.318149
H     2.146985    1.278762    0.386394
C     3.095396    -0.507358    0.671536
H     2.790463    -1.546139    0.566834
H     3.896123    -0.264238    -0.028417
H     3.384008    -0.283398    1.699121
O     0.032146    -1.953001    0.176067
H     0.504267    -2.391306    -0.557417
C     -0.025237    -2.878325    1.346255
H     -0.766834    -2.473954    2.031817
H     -0.347606    -3.852146    0.973931
H     0.960372    -2.937673    1.808507
O     -1.973572    -0.205757    -0.324814
H     -2.209696    -1.151049    -0.394702
C     -3.159149    0.635135    -0.676309
H     -2.854437    1.673885    -0.570763
H     -3.448522    0.412103    -1.703875
H     -3.959180    0.391008    0.024084
O     -0.534153    0.414980    1.913961
H     -1.426442    0.125897    2.183190
C     0.294693    0.640933    3.135878
H     1.129175    1.269146    2.834762
H     -0.330867    1.165102    3.860022
H     0.630007    -0.321118    3.523305
O     0.470597    -0.286422    -1.920980
H     1.363436    0.001310    -2.189836
C     -0.357944    -0.511808    -3.143147
H     -0.691676    0.450522    -3.531239
H     0.267205    -1.037210    -3.866763
H     -1.193475    -1.138692    -2.842194
