33

Cr     -0.000024    0.000045    -0.069803
C     0.000091    -0.000003    2.100511
O     0.000084    0.000131    3.225451
C     -0.000545    2.083059    -0.026540
N     -0.000535    3.240852    -0.012119
C     0.000261    4.677036    0.003737
H     0.839583    5.032227    -0.600838
H     0.108330    5.014310    1.038601
H     -0.945975    5.031817    -0.414414
C     2.083076    0.000581    -0.026387
N     3.240787    0.000621    -0.011867
C     4.677034    -0.000039    0.003901
H     5.032220    -0.839365    -0.600670
H     5.014458    -0.108099    1.038719
H     5.031695    0.946245    -0.414255
C     0.000669    -2.082928    -0.026343
N     0.000709    -3.240895    -0.011965
C     -0.000064    -4.676991    0.003719
H     -0.839479    -5.032091    -0.600783
H     -0.108084    -5.014386    1.038549
H     0.946144    -5.031765    -0.414528
C     -2.083017    -0.000467    -0.025710
N     -3.240828    -0.000436    -0.011067
C     -4.676997    0.000114    0.003652
H     -5.034306    -0.608917    -0.831606
H     -5.027158    1.030841    -0.100892
H     -5.016847    -0.421932    0.953783
C     -0.000694    0.000769    -2.118768
N     -0.000788    0.000764    -3.276180
C     -0.000118    -0.000025    -4.712236
H     -0.609163    -0.840071    -5.059580
H     1.032013    -0.108257    -5.058909
H     -0.422533    0.947253    -5.060811
