24

Cr     -0.030880    0.027723    -0.006221
P     -0.394352    2.587774    0.462330
H     -1.668961    3.050960    0.083100
H     -0.261527    3.084162    1.773497
H     0.456132    3.440862    -0.268365
P     2.545366    0.421655    -0.369609
H     3.092734    1.605159    0.162979
H     3.402922    -0.566787    0.150789
H     2.948330    0.483677    -1.719309
P     0.337077    -2.524697    -0.511761
H     1.563831    -3.083650    -0.103395
H     -0.595339    -3.426089    0.038081
H     0.299280    -2.848212    -1.882621
P     -2.584829    -0.434658    0.415430
H     -2.899476    -1.483604    1.300809
H     -3.346597    0.633272    0.928096
H     -3.313252    -0.792594    -0.737425
P     0.405624    -0.373675    2.512561
H     1.572304    0.219518    3.032622
H     -0.592502    0.123156    3.373000
H     0.529878    -1.712498    2.931392
O     -0.482460    0.538184    -1.969933
H     -1.160061    0.110649    -2.531413
H     0.150013    0.952536    -2.590481
