13

Cr     0.001344    0.000952    -0.000243
I     -0.030703    2.844911    -0.206951
I     2.845281    0.020564    -0.240301
I     0.031873    -2.842853    0.206810
I     -2.843207    -0.016025    0.238580
N     0.175634    0.155243    2.075907
H     -0.454306    -0.504218    2.531452
H     -0.052871    1.108407    2.361051
H     1.141158    -0.046508    2.339387
N     -0.175871    -0.156106    -2.075839
H     0.059797    -1.108255    -2.358582
H     0.446276    0.507706    -2.535688
H     -1.144406    0.036180    -2.335583
