19

Cr     0.006529    -0.001447    -0.001338
P     -0.420027    2.493192    0.279414
H     -1.597887    2.811139    0.984547
H     0.512670    3.152556    1.104543
H     -0.507588    3.403521    -0.792937
P     2.498657    0.416286    -0.246312
H     2.822246    1.579637    -0.972157
H     3.399335    0.524901    0.832356
H     3.162758    -0.534721    -1.045866
P     0.418177    -2.492307    0.288586
H     1.540070    -2.812004    1.078935
H     -0.573529    -3.159961    1.034042
H     0.589790    -3.393081    -0.781651
P     -2.487431    -0.425071    -0.329078
H     -2.801551    -1.567912    -1.091671
H     -3.399130    -0.567435    0.736113
H     -3.148830    0.544783    -1.108595
F     -0.072390    -0.004731    1.810782
F     0.044084    0.033594    -1.815394
