45

Cr     -0.000973    0.000794    0.172042
C     0.098069    2.118819    0.092432
N     0.118080    3.275349    0.039048
C     0.135297    4.710406    -0.031514
H     0.890700    5.017008    -0.759894
H     0.377983    5.106870    0.957960
H     -0.854048    5.057155    -0.342550
C     2.114991    -0.139681    0.081673
N     3.267716    -0.219847    0.005469
C     4.697367    -0.319518    -0.099374
H     4.946666    -1.257419    -0.602558
H     5.125881    -0.306058    0.906124
H     5.066110    0.528893    -0.681713
C     -0.098070    -2.118957    0.104066
N     -0.116322    -3.275509    0.051439
C     -0.132974    -4.709970    -0.020691
H     -0.889932    -5.015975    -0.747420
H     -0.373203    -5.108230    0.968368
H     0.855520    -5.056177    -0.334294
C     -2.116137    0.140212    0.073649
N     -3.268789    0.219676    -0.003550
C     -4.698303    0.321645    -0.108882
H     -5.020528    -0.197272    -1.015615
H     -4.970494    1.379251    -0.160382
H     -5.149418    -0.139578    0.773681
O     0.001025    -0.005829    -1.977059
C     0.745692    -0.854140    -2.822612
C     0.480558    -0.551305    -4.108015
C     -0.468777    0.535229    -4.111424
C     -0.740110    0.840600    -2.827889
H     1.372086    -1.578891    -2.330280
H     0.905023    -1.038648    -4.975906
H     -1.367295    1.567780    -2.339931
H     -0.888040    1.021823    -4.982422
C     0.000069    -0.000070    5.000242
C     0.890600    0.807792    4.288250
C     0.862826    0.786662    2.901233
N     -0.007175    0.008225    2.204621
C     -0.876416    -0.770945    2.901159
C     -0.896116    -0.801263    4.287898
H     0.004211    -0.003944    6.086302
H     1.602705    1.448467    4.798299
H     1.547337    1.397771    2.324689
H     -1.564893    -1.377009    2.324803
H     -1.605927    -1.443673    4.798015
