15

Cr     0.022031    0.019906    -0.069856
C     -0.323978    2.163775    -0.300382
O     -0.504074    3.264242    -0.415609
C     2.170525    0.333691    -0.325893
O     3.272808    0.494446    -0.451967
C     0.382045    -2.107955    0.291081
O     0.565736    -3.196236    0.488269
C     -2.104874    -0.299866    0.320430
O     -3.193667    -0.462812    0.532275
C     0.318435    0.359496    2.111747
O     0.469042    0.533789    3.209046
N     -0.228273    -0.233578    -2.122944
H     -1.157658    0.061636    -2.465425
H     0.448935    0.289485    -2.702851
H     -0.136676    -1.217408    -2.426071
