39

Cr     0.000431    0.001746    -0.255593
O     -0.002517    -0.000503    1.889090
H     0.642273    0.445887    2.467405
H     -0.670495    -0.411967    2.467097
C     0.025571    2.116834    -0.015416
N     0.027393    3.252439    0.213316
C     0.024107    4.662533    0.495288
H     0.875469    5.124160    -0.011926
H     0.106126    4.803496    1.576323
H     -0.913545    5.089903    0.129700
C     2.115844    -0.023306    -0.231973
N     3.273544    -0.027559    -0.244857
C     4.710354    -0.033033    -0.267910
H     5.045629    -0.843374    -0.920690
H     5.076463    -0.190651    0.749978
H     5.058195    0.929743    -0.651910
C     -0.025041    -2.111694    -0.011523
N     -0.026615    -3.246704    0.219744
C     -0.021637    -4.656072    0.502402
H     -0.872354    -5.118630    -0.004665
H     -0.103077    -4.797209    1.583294
H     0.916454    -5.081784    0.136540
C     -2.117206    0.022417    -0.239757
N     -3.275001    0.022723    -0.253838
C     -4.711948    0.020129    -0.279939
H     -5.044311    -0.571944    -1.136752
H     -5.062444    1.051336    -0.373500
H     -5.078849    -0.420808    0.650671
C     0.000509    -0.001445    -5.091558
C     -0.095230    1.195939    -4.378650
C     -0.092466    1.162789    -2.992175
N     0.005702    0.001015    -2.289840
C     0.102261    -1.161954    -2.990453
C     0.098936    -1.197591    -4.376891
H     -0.002482    -0.002572    -6.177588
H     -0.173281    2.151724    -4.886470
H     -0.172164    2.079475    -2.425242
H     0.183143    -2.077582    -2.421922
H     0.172514    -2.154536    -4.883229
