59

Cr     0.008255    -0.007426    -0.247778
O     0.022633    -0.009745    1.906560
H     0.809585    -0.129748    2.469467
H     -0.745885    0.092546    2.497731
C     -0.168080    4.926397    -0.139637
C     -0.606356    4.228756    -1.266621
C     -0.538859    2.840760    -1.273926
N     -0.060872    2.122334    -0.226389
C     0.359403    2.811570    0.867680
C     0.320076    4.196305    0.947603
H     -0.205916    6.011201    -0.108738
H     -0.998939    4.749023    -2.134262
H     -0.877546    2.278908    -2.133065
H     0.734762    2.222033    1.692137
H     0.669768    4.688920    1.849008
C     4.890191    0.183882    0.508260
C     4.139401    -0.924483    0.905078
C     2.777706    -0.954254    0.631679
N     2.126979    0.059471    0.000629
C     2.867215    1.138515    -0.369134
C     4.234442    1.230514    -0.143693
H     5.957900    0.231050    0.701063
H     4.599903    -1.763947    1.415529
H     2.179325    -1.810167    0.914252
H     2.337747    1.943996    -0.860721
H     4.769349    2.115537    -0.472762
C     0.112035    -4.944107    -0.164773
C     -0.366693    -4.212586    0.925763
C     -0.373067    -2.826561    0.857088
N     0.068075    -2.137227    -0.228817
C     0.538524    -2.856856    -1.279019
C     0.573357    -4.246303    -1.282943
H     0.124874    -6.030065    -0.142300
H     -0.735315    -4.705896    1.819478
H     -0.742033    -2.235046    1.682949
H     0.898423    -2.294653    -2.129646
H     0.957149    -4.768214    -2.153553
C     -4.887998    -0.163531    0.465328
C     -4.229156    -1.222012    -0.164154
C     -2.858047    -1.142169    -0.369254
N     -2.115228    -0.065325    0.002266
C     -2.768477    0.957384    0.615989
C     -4.135078    0.941623    0.866229
H     -5.959322    -0.199133    0.639816
H     -4.767473    -2.105559    -0.490660
H     -2.326372    -1.955121    -0.845421
H     -2.167929    1.809073    0.905564
H     -4.596065    1.790252    1.361725
C     0.016508    0.030383    -5.156609
C     1.205679    0.152151    -4.435903
C     1.165453    0.132334    -3.047769
N     0.010355    -0.004903    -2.341938
C     -1.141577    -0.132128    -3.055359
C     -1.175035    -0.117539    -4.444183
H     0.018357    0.050710    -6.242204
H     2.162139    0.261821    -4.936776
H     2.079106    0.221654    -2.480264
H     -2.057140    -0.241231    -2.493216
H     -2.128634    -0.219355    -4.952447
