65

Cr     0.004361    -0.005090    0.172761
O     -0.026845    0.063283    -2.114202
C     0.629065    -0.788758    -3.026987
C     0.259515    -0.485070    -4.286855
C     -0.679735    0.605609    -4.208522
C     -0.832831    0.912143    -2.904842
H     1.301762    -1.512290    -2.602826
H     0.610905    -0.974379    -5.185845
H     -1.420645    1.637684    -2.368830
H     -1.173942    1.094185    -5.038081
C     -0.100628    4.990807    0.074003
C     -0.642435    4.290519    1.152910
C     -0.579500    2.903612    1.163232
N     -0.015605    2.173824    0.167398
C     0.500248    2.869150    -0.876543
C     0.478936    4.256045    -0.959619
H     -0.129706    6.075884    0.040474
H     -1.110285    4.808515    1.983192
H     -0.979261    2.359491    2.006002
H     0.925985    2.296853    -1.685689
H     0.910128    4.742040    -1.828822
C     4.980524    -0.031911    0.118618
C     4.269984    -0.611113    1.172230
C     2.882591    -0.588903    1.148576
N     2.167564    -0.015524    0.143600
C     2.869922    0.521404    -0.884445
C     4.259105    0.536126    -0.931472
H     6.066309    -0.035215    0.110484
H     4.781775    -1.082371    2.004418
H     2.318740    -1.058941    1.942565
H     2.302066    0.932129    -1.705819
H     4.758903    0.984003    -1.784356
C     -0.030261    -4.968761    -0.319881
C     -1.186170    -4.276458    0.043312
C     -1.136623    -2.894834    0.175555
N     -0.009088    -2.163863    -0.028202
C     1.108119    -2.853548    -0.374969
C     1.136590    -4.234073    -0.530013
H     -0.038013    -6.048789    -0.433007
H     -2.121786    -4.796142    0.221806
H     -2.024517    -2.346134    0.454635
H     2.005684    -2.273393    -0.525006
H     2.066074    -4.719635    -0.808765
C     -4.932159    0.237542    -0.164244
C     -4.285104    0.697024    0.985130
C     -2.905128    0.572798    1.079603
N     -2.142107    0.027145    0.100003
C     -2.785845    -0.441650    -1.002554
C     -4.161716    -0.351181    -1.168391
H     -6.009625    0.323834    -0.270135
H     -4.837549    1.145396    1.804284
H     -2.389511    0.897699    1.972211
H     -2.180462    -0.922621    -1.758327
H     -4.612610    -0.742779    -2.074751
C     0.253270    -0.222216    5.040254
C     0.970078    0.741470    4.325792
C     0.849666    0.790115    2.943978
N     0.054871    -0.068084    2.249355
C     -0.636660    -1.002530    2.949430
C     -0.564702    -1.105506    4.332940
H     0.333336    -0.283445    6.121802
H     1.621219    1.449198    4.828935
H     1.398900    1.522702    2.366919
H     -1.255914    -1.681300    2.381160
H     -1.141460    -1.870414    4.841832
