26

Cr     -0.002921    0.002429    0.208390
C     -0.017783    -0.006261    -2.178894
O     -0.022700    -0.015548    -3.303428
O     0.006691    2.009001    0.023638
H     0.798996    2.587623    0.036206
H     -0.742033    2.548676    -0.307919
O     2.018197    0.001727    0.116334
H     2.576008    0.022085    -0.690240
H     2.623165    0.100688    0.881937
O     -0.046082    -2.002237    0.026835
H     0.672028    -2.564841    -0.332676
H     -0.853457    -2.556150    0.080759
O     -2.031093    0.000903    0.144930
H     -2.627465    -0.031871    0.922976
H     -2.602158    -0.052257    -0.651211
C     0.027922    -0.008860    4.967298
C     -0.642429    1.001333    4.262201
C     -0.626056    0.988227    2.877195
N     0.013977    0.002326    2.174391
C     0.661681    -0.988361    2.863247
C     0.691522    -1.012982    4.247873
H     0.034179    -0.012657    6.054860
H     -1.168746    1.799468    4.777934
H     -1.111600    1.772018    2.308081
H     1.143853    -1.767385    2.285031
H     1.224118    -1.814517    4.751994
