43

Cr     -0.001374    0.004039    0.013229
C     0.042277    2.120436    -0.006811
N     0.101454    3.275682    -0.042930
C     0.183575    4.709121    -0.101469
H     0.956142    4.982604    -0.825692
H     0.442589    5.086051    0.891768
H     -0.787196    5.102649    -0.415905
C     2.113901    0.051492    0.027967
N     3.268928    0.122575    0.050755
C     4.701150    0.231355    0.085563
H     5.132611    -0.610794    -0.462046
H     5.026082    0.213109    1.129264
H     4.989373    1.175254    -0.385101
C     -0.043852    -2.112365    -0.011523
N     -0.101820    -3.267697    -0.049519
C     -0.182584    -4.701085    -0.110360
H     -0.955515    -4.974357    -0.834285
H     -0.440168    -5.079961    0.882501
H     0.788312    -5.093104    -0.426202
C     -2.116068    -0.049149    0.023974
N     -3.270436    -0.128598    0.044077
C     -4.701683    -0.249724    0.072265
H     -5.014480    -0.879241    -0.765286
H     -5.143355    0.746440    -0.017548
H     -4.991448    -0.708360    1.021489
O     -0.003011    0.000833    2.058654
C     -0.764239    0.841193    2.911613
C     -0.484353    0.535429    4.191539
C     0.485603    -0.535469    4.189450
C     0.761351    -0.839884    2.908335
H     -1.405788    1.553142    2.419525
H     -0.912251    1.011904    5.064470
H     1.399931    -1.552517    2.413440
H     0.916307    -1.012786    5.060530
O     0.000442    0.005181    -2.035342
C     -0.808089    0.800224    -2.887830
C     -0.512592    0.509976    -4.167844
C     0.516097    -0.504312    -4.165960
C     0.809443    -0.792016    -2.884976
H     -1.492672    1.470673    -2.395532
H     -0.968757    0.958991    -5.040863
H     1.492974    -1.461562    -2.390205
H     0.973317    -0.955487    -5.037184
