59

Cr     0.007310    -0.007789    -0.242828
O     0.027935    -0.009404    1.915128
H     0.811645    -0.142038    2.480158
H     -0.741917    0.093330    2.504347
C     -0.164562    4.935535    -0.138650
C     -0.597835    4.237470    -1.267281
C     -0.531358    2.849103    -1.273780
N     -0.059206    2.131797    -0.223527
C     0.357291    2.820069    0.871881
C     0.318934    4.205522    0.950543
H     -0.202709    6.020410    -0.108769
H     -0.985147    4.757555    -2.137447
H     -0.865590    2.286372    -2.134362
H     0.729377    2.229757    1.698176
H     0.665979    4.698105    1.853083
C     4.897432    0.181999    0.505253
C     4.148047    -0.929060    0.896625
C     2.785500    -0.957243    0.625824
N     2.134020    0.059789    0.002307
C     2.872158    1.140840    -0.363128
C     4.239967    1.231911    -0.139792
H     5.965043    0.228053    0.699067
H     4.609627    -1.772137    1.400737
H     2.187558    -1.814342    0.905496
H     2.341016    1.948586    -0.849107
H     4.774054    2.118400    -0.465451
C     0.107880    -4.951539    -0.160967
C     -0.368677    -4.220361    0.930548
C     -0.374381    -2.833937    0.861918
N     0.068260    -2.146697    -0.223670
C     0.539327    -2.865109    -1.273218
C     0.572160    -4.254655    -1.278011
H     0.117162    -6.037201    -0.139935
H     -0.734896    -4.714301    1.825240
H     -0.742377    -2.241129    1.687849
H     0.898975    -2.301436    -2.122863
H     0.957447    -4.776517    -2.147726
C     -4.896210    -0.159903    0.457441
C     -4.236062    -1.222692    -0.163682
C     -2.864058    -1.144331    -0.366748
N     -2.122701    -0.065258    0.000284
C     -2.776170    0.960877    0.606485
C     -4.143370    0.946567    0.853831
H     -5.968113    -0.195086    0.629585
H     -4.773661    -2.109203    -0.484696
H     -2.331675    -1.960441    -0.837955
H     -2.176479    1.814543    0.890920
H     -4.605620    1.796012    1.345451
C     0.012096    0.033174    -5.156837
C     1.202302    0.154411    -4.437409
C     1.164714    0.131697    -3.048924
N     0.009957    -0.007876    -2.343895
C     -1.142721    -0.134843    -3.054290
C     -1.178050    -0.116666    -4.442848
H     0.013116    0.053232    -6.242992
H     2.158075    0.264774    -4.939484
H     2.078921    0.220076    -2.481244
H     -2.056877    -0.245823    -2.490986
H     -2.131288    -0.219133    -4.950737
