27

Cr     -0.001363    0.004556    -0.007243
C     0.342998    2.054175    0.295125
N     0.534191    3.185033    0.468810
C     0.771975    4.572975    0.690631
H     1.559891    4.913050    0.014179
H     1.079745    4.722508    1.728369
H     -0.147294    5.129057    0.491078
C     2.047860    -0.296209    -0.354816
N     3.180271    -0.464227    -0.541843
C     4.572584    -0.673891    -0.764799
H     4.699811    -1.431117    -1.542269
H     5.038101    -1.010368    0.164741
H     5.027196    0.265006    -1.090231
C     -0.343772    -2.046460    -0.302849
N     -0.531278    -3.179772    -0.464075
C     -0.761144    -4.573031    -0.658814
H     -1.718862    -4.710007    -1.166847
H     -0.778144    -5.073094    0.312588
H     0.042235    -4.984331    -1.274908
C     -2.050953    0.303875    0.339515
N     -3.184317    0.467342    0.524754
C     -4.578639    0.666615    0.744490
H     -4.728530    1.632876    1.232347
H     -4.956882    -0.131414    1.388018
H     -5.098654    0.651374    -0.216408
Cl     0.342012    -0.362079    2.227605
Cl     -0.344364    0.371132    -2.240865
