54

Cr     0.029219    -0.020062    0.135889
C     0.073631    0.021464    -2.032507
N     0.087337    0.077279    -3.189459
C     0.094637    0.151287    -4.626074
H     -0.480941    -0.689791    -5.021933
H     1.129189    0.095803    -4.975303
H     -0.354993    1.100960    -4.928003
O     0.047955    2.013289    0.025264
C     -1.084130    2.869131    -0.115439
C     -0.660218    4.105161    -0.430890
C     0.782015    4.074207    -0.521374
C     1.190716    2.821624    -0.253991
H     -2.036067    2.409171    0.084761
H     -1.296189    4.969573    -0.576736
H     2.141136    2.323017    -0.184068
H     1.428498    4.911968    -0.750811
O     2.106173    -0.038846    0.172563
C     2.943204    0.154238    1.312534
C     4.228756    0.016916    0.942488
C     4.258272    -0.278183    -0.471405
C     2.989542    -0.310096    -0.913697
H     2.430571    0.374022    2.231087
H     5.086269    0.113326    1.596540
H     2.520182    -0.504571    -1.860801
H     5.139994    -0.445624    -1.077269
O     0.040488    -2.058888    0.061311
C     1.168926    -2.911350    0.244988
C     0.786827    -4.185669    0.049238
C     -0.622386    -4.187143    -0.271033
C     -1.053182    -2.913834    -0.258131
H     2.083976    -2.415491    0.516871
H     1.427958    -5.054884    0.125162
H     -1.998171    -2.422034    -0.405378
H     -1.234208    -5.055386    -0.481602
O     -2.081798    -0.016470    0.098987
C     -2.921703    -0.167139    -1.043382
C     -4.203263    0.030539    -0.686221
C     -4.226553    0.329605    0.725790
C     -2.960656    0.295701    1.177354
H     -2.423475    -0.423432    -1.961032
H     -5.059948    -0.030863    -1.345683
H     -2.491335    0.442851    2.132120
H     -5.103082    0.537792    1.326509
C     -0.256213    -0.007385    4.995644
C     -0.066565    1.186122    4.291264
C     0.023209    1.150524    2.907417
N     -0.066617    -0.014890    2.201966
C     -0.250118    -1.173931    2.893285
C     -0.348779    -1.202204    4.278003
H     -0.328908    -0.003961    6.079223
H     0.011677    2.139833    4.804146
H     0.175470    2.060903    2.343872
H     -0.320473    -2.088589    2.322184
H     -0.496231    -2.153477    4.779444
