25

Cr     0.001600    -0.126603    -0.029256
O     0.284821    1.813593    0.298621
H     -0.422012    2.489605    0.314910
H     1.160422    2.246373    0.349985
O     1.974264    -0.331869    0.259473
H     2.595580    -0.639434    -0.431441
H     2.357308    -0.551838    1.132861
O     -0.283522    -2.074919    -0.356385
H     -0.431604    -2.738122    0.346796
H     -0.298951    -2.522581    -1.225761
O     -1.941896    0.303301    -0.268973
H     -2.631050    0.061318    0.383110
H     -2.363065    0.329917    -1.152409
N     -0.315046    -0.441324    1.933102
C     -0.489172    -0.539660    3.082487
C     -0.702168    -0.664197    4.507331
H     -0.247434    -1.595329    4.873821
H     -0.245949    0.190581    5.026277
H     -1.779625    -0.681072    4.724302
N     0.307558    0.116658    -2.000892
C     0.510555    0.327728    -3.130164
C     0.761017    0.586834    -4.529997
H     -0.191810    0.630251    -5.075718
H     1.284439    1.546260    -4.643144
H     1.380640    -0.215105    -4.954691
