27

Cr     0.000589    -0.000071    -0.004481
C     0.359749    2.043276    -0.280936
N     0.553379    3.177701    -0.440070
C     0.790210    4.569418    -0.635208
H     1.773780    4.708011    -1.090835
H     0.756167    5.078167    0.331370
H     0.020237    4.977979    -1.294315
C     2.047116    -0.266112    0.343011
N     3.183607    -0.415394    0.532349
C     4.577822    -0.597416    0.764823
H     4.900323    -1.536645    0.308677
H     4.761379    -0.627694    1.841713
H     5.130049    0.234280    0.320326
C     -0.357927    -2.043487    0.272178
N     -0.550110    -3.178039    0.432142
C     -0.784825    -4.569751    0.629997
H     -1.443721    -4.940140    -0.159238
H     -1.255062    -4.719538    1.605026
H     0.167023    -5.105381    0.594312
C     -2.046057    0.266573    -0.350683
N     -3.182790    0.417214    -0.537425
C     -4.577588    0.600723    -0.764955
H     -4.850728    1.631092    -0.524181
H     -5.140569    -0.085992    -0.127989
H     -4.800281    0.396612    -1.815234
F     -0.274182    0.279213    1.719602
F     0.275340    -0.279327    -1.728440
