18

Cr     -0.010385    0.012199    0.025206
C     -0.332903    0.362310    -2.122320
O     -0.506958    0.534122    -3.217268
O     0.318719    1.944234    0.340582
H     1.169958    2.417884    0.199686
H     -0.389612    2.620690    0.433139
O     1.932011    -0.282839    -0.312908
H     2.435211    -0.265991    -1.158395
H     2.576927    -0.436921    0.413239
O     -0.323455    -1.930981    -0.239056
H     0.362964    -2.582969    -0.506511
H     -1.201370    -2.369598    -0.308183
O     -1.956333    0.310842    0.336206
H     -2.375762    0.265070    1.224739
H     -2.668379    0.495952    -0.316577
O     0.283767    -0.308139    1.954585
H     0.452452    0.391418    2.625002
H     0.233150    -1.177283    2.413158
