20

Cr     -0.000788    0.040791    0.046877
O     -0.308205    2.023152    0.219339
H     -0.440521    2.537348    1.044418
H     -0.294180    2.670372    -0.520252
O     1.945143    0.350109    0.336690
H     2.379152    1.226099    0.422459
H     2.640791    -0.340446    0.382002
O     0.299168    -1.936743    -0.185984
H     0.414433    -2.372348    -1.056352
H     0.412854    -2.635280    0.493941
O     -1.941024    -0.251760    -0.279205
H     -2.623082    0.450803    -0.346704
H     -2.385716    -1.121164    -0.374556
N     -0.320267    -0.176568    2.106984
H     -0.445186    -1.152655    2.406527
H     -1.171698    0.295636    2.441183
H     0.452241    0.181945    2.685094
S     0.358303    0.532862    -2.480338
H     -0.478127    -0.254343    -3.197252
H     1.506706    -0.067805    -2.872238
