17

Cr     0.042109    -0.128284    -0.002123
N     -0.429633    3.036232    0.465610
C     -0.267390    1.889200    0.296699
N     3.198248    0.312537    0.511880
C     2.053688    0.152976    0.325845
N     0.584638    -3.279100    -0.452567
C     0.386181    -2.136617    -0.293610
N     -3.115542    -0.605229    -0.519632
C     -1.973356    -0.429587    -0.331389
P     -0.379260    -0.499982    2.399846
H     0.659845    -0.262788    3.325892
H     -0.770411    -1.786156    2.828826
H     -1.398533    0.258084    3.013473
P     0.317214    0.330885    -2.410464
H     1.511302    0.937404    -2.854722
H     -0.610872    1.200397    -3.021217
H     0.253054    -0.739766    -3.328727
