17

Cr     0.000055    0.000123    -0.000051
I     -0.000033    2.835859    0.000201
I     2.835665    0.000393    0.003100
I     -0.000018    -2.835802    -0.000130
I     -2.835616    0.000426    -0.003024
N     0.000228    -0.000010    2.040731
C     0.000280    0.000004    3.193454
C     0.000079    -0.000059    4.647430
H     -0.411192    -0.944203    5.018098
H     1.023339    0.115615    5.018393
H     -0.611969    0.828177    5.018066
N     0.000066    -0.000029    -2.040775
C     0.000094    -0.000013    -3.193511
C     -0.000124    -0.000098    -4.647480
H     0.377207    -0.958208    -5.018265
H     -1.018795    0.151916    -5.017865
H     0.640734    0.805910    -5.018372
