37

Cr     -0.000866    0.001520    -0.000783
C     0.000836    2.087377    -0.000708
N     0.003256    3.245469    -0.001034
C     0.007343    4.681221    -0.000996
H     0.846529    5.029134    -0.609416
H     0.116370    5.031035    1.029075
H     -0.937459    5.034756    -0.422705
C     2.085063    0.000292    0.000200
N     3.243154    -0.001652    0.002086
C     4.678909    -0.004959    0.005412
H     5.028722    -0.843642    -0.602602
H     5.026330    -0.114322    1.036263
H     5.032915    0.940269    -0.414948
C     -0.002523    -2.084472    -0.001263
N     -0.005272    -3.242563    -0.001319
C     -0.009858    -4.678319    -0.000701
H     -0.849199    -5.026179    -0.608936
H     -0.119007    -5.027642    1.029527
H     0.934808    -5.032371    -0.422278
C     -2.086759    0.001743    -0.000273
N     -3.244849    0.000318    0.001092
C     -4.680524    -0.002562    0.003044
H     -5.032903    0.991141    0.292584
H     -5.028423    -0.750939    0.720224
H     -5.031827    -0.250145    -1.002277
C     -0.000802    0.001295    2.089542
N     -0.001189    -0.000261    3.247473
C     -0.002395    -0.003394    4.683402
H     0.605090    -0.842810    5.032254
H     -1.032860    -0.111426    5.032346
H     0.419616    0.941355    5.036537
C     -0.000798    0.000675    -2.090908
N     -0.000218    -0.000908    -3.248827
C     0.001271    -0.003914    -4.684741
H     -0.606960    -0.842715    -5.033772
H     1.031696    -0.113111    -5.033447
H     -0.419640    0.941351    -5.037828
