19

Cr     0.047638    -0.015280    0.004285
O     0.335653    1.931592    0.310424
H     1.210971    2.357651    0.437333
H     -0.352214    2.631740    0.328456
O     2.004841    -0.323522    0.265874
H     2.720492    -0.334461    -0.407378
H     2.412365    -0.494860    1.142509
O     -0.234802    -1.967891    -0.283533
H     0.468188    -2.649588    -0.355788
H     -1.100137    -2.401429    -0.446064
O     -1.917795    0.292568    -0.225939
H     -2.559854    0.278368    0.517044
H     -2.420851    0.464461    -1.049482
O     -0.258882    -0.291741    1.965120
H     -0.232180    0.390646    2.670788
H     -0.399455    -1.163791    2.393387
S     0.566682    0.320840    -2.464067
H     -0.257028    -0.502814    -3.156145
H     -0.035032    1.478422    -2.829766
