25

Cr     0.001821    -0.003308    0.040949
N     -0.198060    2.083901    0.471076
H     -1.148056    2.347309    0.759810
H     0.405194    2.441774    1.221623
H     -0.001953    2.693212    -0.332626
N     2.114813    0.232981    -0.186008
H     2.444968    1.179484    0.037788
H     2.694399    -0.386421    0.394015
H     2.445794    0.076361    -1.145930
N     0.208540    -2.088919    -0.379363
H     1.162619    -2.353079    -0.653344
H     0.001035    -2.693139    0.424898
H     -0.383706    -2.449021    -1.137143
N     -2.111835    -0.250824    0.256345
H     -2.453448    -1.164908    -0.064234
H     -2.439154    -0.189832    1.228410
H     -2.686520    0.430579    -0.254908
P     0.383968    -0.412166    2.643893
H     1.542458    0.179014    3.187948
H     -0.625273    0.077852    3.497736
H     0.507269    -1.751584    3.065981
P     -0.396103    0.439120    -2.553673
H     0.728901    0.827490    -3.309545
H     -0.892489    -0.650173    -3.297997
H     -1.323866    1.454861    -2.862695
