13

Cr     0.000104    0.000498    0.004266
N     0.304502    2.042259    0.338230
N     0.465801    3.124606    0.514893
N     2.042011    -0.333674    0.308620
N     3.124360    -0.510232    0.469995
N     -0.304193    -2.041472    -0.329692
N     -0.465486    -3.123817    -0.506336
N     -2.041669    0.334656    -0.300043
N     -3.124035    0.511142    -0.461374
N     -0.333854    -0.303744    2.046101
N     -0.510328    -0.465371    3.128428
N     0.334086    0.304694    -2.037636
N     0.510562    0.466287    -3.119967
