18

Cr     -0.011406    -0.051731    0.177321
S     0.371415    2.432337    0.523725
H     -0.834028    2.923260    0.890582
H     0.298631    2.884070    -0.748638
S     2.473919    -0.465660    0.535261
H     2.925832    -0.275479    -0.725118
H     2.971484    0.699940    1.008075
S     -0.374129    -2.531103    -0.240118
H     0.511128    -3.160538    0.565977
H     0.335610    -2.714871    -1.375599
S     -2.485630    0.345367    -0.238881
H     -3.096949    -0.819960    0.074664
H     -2.531416    0.145368    -1.575024
S     -0.446850    -0.487262    2.721070
H     0.530642    0.161950    3.391994
H     -1.425860    0.362930    3.103598
C     0.299078    0.201653    -1.721998
N     0.488881    0.350568    -2.868901
