49

Cr     -0.054005    -0.073215    -0.036227
O     -0.241960    -0.036001    2.047390
H     0.370786    0.302587    2.726526
H     -1.116288    -0.126015    2.474745
O     -0.008024    2.378118    -0.038513
C     0.897002    3.150762    0.686834
C     0.735547    4.476798    0.386646
C     -0.315502    4.560575    -0.566565
C     -0.744357    3.281888    -0.801987
H     1.552556    2.618148    1.357783
H     1.301418    5.296822    0.810940
H     -1.517970    2.863728    -1.425186
H     -0.715435    5.457960    -1.022151
O     2.086431    0.001982    0.032295
C     2.940683    -0.768216    0.841544
C     4.220874    -0.354845    0.675398
C     4.203578    0.727557    -0.265702
C     2.913696    0.926122    -0.639175
H     2.470082    -1.552162    1.414357
H     5.090216    -0.776464    1.164207
H     2.420205    1.593235    -1.327211
H     5.059561    1.286136    -0.622742
O     -0.048080    -2.423419    -0.028419
C     0.050540    -3.229593    1.108937
C     0.024477    -4.546366    0.755896
C     -0.096656    -4.595479    -0.664516
C     -0.141404    -3.306647    -1.108708
H     0.103419    -2.700208    2.047420
H     0.080154    -5.387804    1.435009
H     -0.227816    -2.850749    -2.082748
H     -0.149732    -5.481755    -1.284189
O     -2.180189    -0.059926    -0.062372
C     -3.009223    0.840809    0.643039
C     -4.303120    0.489741    0.468802
C     -4.326308    -0.679150    -0.370779
C     -3.046588    -0.987100    -0.676352
H     -2.500913    1.641413    1.156997
H     -5.161289    1.000643    0.886795
H     -2.570994    -1.773214    -1.240233
H     -5.204303    -1.221094    -0.698515
O     0.021266    -0.101897    -2.169884
C     -0.926856    0.447754    -3.053388
C     -0.456580    0.383885    -4.323131
C     0.837628    -0.232857    -4.271197
C     1.103385    -0.516352    -2.971973
H     -1.856239    0.758457    -2.604732
H     -0.975870    0.724811    -5.209834
H     1.924806    -0.982506    -2.452983
H     1.487279    -0.446966    -5.110410
