31

Cr     -0.140094    -0.139929    0.120450
N     0.144237    1.938974    -0.294021
H     0.322924    2.463754    0.569801
H     -0.639940    2.422511    -0.747338
H     0.950416    2.141959    -0.895747
N     1.973625    -0.356770    -0.118390
H     2.507206    0.227789    0.536289
H     2.306231    -0.094801    -1.053184
H     2.338644    -1.306389    0.015735
N     -0.450169    -2.243269    0.362796
H     -1.301754    -2.602925    -0.085145
H     -0.554953    -2.479791    1.356263
H     0.296332    -2.857571    0.017488
N     -2.266602    0.067145    0.266408
H     -2.790278    -0.449792    -0.450751
H     -2.619897    1.028057    0.192441
H     -2.626905    -0.272369    1.166068
C     0.410728    0.531950    4.884394
C     -0.476940    1.325025    4.147758
C     -0.607452    1.104999    2.784443
N     0.099279    0.143380    2.121514
C     0.960253    -0.625259    2.850527
C     1.138083    -0.459942    4.216328
H     0.531786    0.682541    5.953931
H     -1.063856    2.106171    4.621728
H     -1.293374    1.710035    2.200404
H     1.515965    -1.392684    2.321912
H     1.836830    -1.101214    4.745307
S     -0.603068    -0.595420    -2.442239
H     0.365897    -1.396723    -2.940577
H     -0.263167    0.480565    -3.188025
