24

Cr     0.149162    0.146887    0.081262
N     -0.106945    2.244735    0.363095
H     0.312871    2.642950    1.207110
H     -1.093169    2.515066    0.398071
H     0.287135    2.745351    -0.440051
N     2.239664    0.364642    0.433115
H     2.747589    0.132079    -0.426340
H     2.642398    -0.193837    1.190078
H     2.498166    1.333732    0.636321
N     0.410741    -1.948650    -0.203563
H     0.275536    -2.164613    -1.196695
H     -0.206381    -2.565555    0.331198
H     1.361848    -2.260613    0.009552
N     -1.934706    -0.062654    -0.309782
H     -2.569767    0.243493    0.431861
H     -2.193997    -1.032430    -0.508786
H     -2.179255    0.458949    -1.157774
N     -0.184962    -0.179413    2.178217
C     -0.362871    -0.356041    3.311590
C     -0.586230    -0.577586    4.731451
H     -1.632796    -0.368568    4.980380
H     -0.358342    -1.618863    4.985906
H     0.060735    0.084600    5.317912
F     0.423555    0.416351    -1.620835
