19

Cr     -0.024366    -0.033902    0.023698
N     -0.203228    2.002845    0.382962
H     -1.163676    2.370028    0.350091
P     0.877875    3.170803    0.658917
P     2.788176    1.765846    0.646638
N     1.990315    0.405455    0.303091
H     2.619035    -0.407497    0.258325
N     0.343371    -2.069163    -0.133068
H     0.582339    -2.399225    -1.076249
P     0.254073    -3.211158    1.008179
P     -0.285542    -1.893990    2.787804
N     -0.358231    -0.469044    2.029162
H     -0.574580    0.344698    2.617163
N     -2.034535    -0.223769    -0.454183
H     -2.656456    -0.405949    0.344905
P     -2.846485    -0.169935    -1.848841
P     -0.955927    0.257361    -3.214701
N     0.134575    0.226631    -2.023681
H     1.089507    0.391894    -2.368969
