62

Cr     0.013715    0.014448    0.120043
C     0.057161    -0.074642    -2.040664
N     0.073121    -0.193866    -3.195012
C     0.070564    -0.343324    -4.623968
H     -0.568421    -1.188914    -4.889175
H     1.091943    -0.528808    -4.964746
H     -0.314190    0.573773    -5.076673
C     -0.524776    4.937490    -0.044222
C     -1.146393    4.165896    0.939729
C     -0.964789    2.790312    0.936293
N     -0.194313    2.145883    0.022307
C     0.385810    2.905017    -0.939211
C     0.249548    4.285969    -1.004921
H     -0.645314    6.016402    -0.062743
H     -1.767968    4.618562    1.705426
H     -1.437049    2.177855    1.692092
H     0.972305    2.388650    -1.685430
H     0.746016    4.835751    -1.797742
C     4.990148    -0.088125    0.150440
C     4.239215    -0.683759    1.165408
C     2.853259    -0.625056    1.108668
N     2.175775    -0.004284    0.106163
C     2.919153    0.554322    -0.881460
C     4.308347    0.536519    -0.895197
H     6.075593    -0.118371    0.168332
H     4.716441    -1.192774    1.996768
H     2.260909    -1.100027    1.878025
H     2.383144    1.019598    -1.696666
H     4.840818    1.004065    -1.717207
C     -0.110478    -4.910182    -0.463439
C     -1.228954    -4.211515    -0.005711
C     -1.149605    -2.834581    0.154011
N     -0.021924    -2.121907    -0.102545
C     1.051504    -2.809126    -0.572124
C     1.045340    -4.185512    -0.759420
H     -0.141566    -5.988384    -0.590249
H     -2.158525    -4.720933    0.225507
H     -2.006538    -2.273779    0.498686
H     1.931368    -2.227188    -0.805128
H     1.938965    -4.677230    -1.129520
C     -4.963963    0.254540    0.119630
C     -4.267275    0.015852    1.305972
C     -2.880290    -0.052934    1.274836
N     -2.152380    0.097402    0.137456
C     -2.842154    0.346604    -1.003473
C     -4.228712    0.425819    -1.053573
H     -6.048574    0.309679    0.110793
H     -4.787316    -0.115264    2.249506
H     -2.323750    -0.235967    2.183422
H     -2.259406    0.492736    -1.901611
H     -4.716522    0.621393    -2.002978
C     0.541569    0.006580    5.016505
C     0.956285    1.091422    4.241161
C     0.765421    1.053374    2.865823
N     0.174417    0.007505    2.232875
C     -0.189080    -1.059050    2.991736
C     -0.026458    -1.094488    4.370678
H     0.665763    0.014408    6.095365
H     1.427976    1.959345    4.690742
H     1.101475    1.870662    2.241710
H     -0.616405    -1.904229    2.468043
H     -0.342594    -1.972674    4.924220
