11

Cr     0.063369    0.092530    0.000266
I     0.083659    2.869944    -0.205071
I     2.838549    0.100318    0.409862
I     0.073582    -2.710959    0.116586
I     -2.723925    0.062218    -0.289075
S     -0.356831    0.343526    2.454017
H     -0.464536    -0.977594    2.726449
H     0.945328    0.385721    2.825335
S     0.416689    -0.160708    -2.470543
H     -0.641558    -0.963927    -2.710502
H     -0.234326    0.958931    -2.857324
