27

Cr     0.089567    -0.096009    -0.001527
N     -0.124735    2.002151    0.298393
H     -1.108016    2.289153    0.368940
H     0.325071    2.404222    1.129739
H     0.240054    2.541581    -0.495480
N     2.186391    0.184572    -0.275961
H     2.547459    1.088529    0.051428
H     2.800323    -0.513989    0.161012
H     2.419955    0.162118    -1.275687
N     0.282344    -2.184227    -0.385117
H     1.250867    -2.472879    -0.567491
H     -0.048397    -2.833838    0.338788
H     -0.227244    -2.449874    -1.236437
N     -2.008524    -0.366489    0.293097
H     -2.277715    -1.348692    0.420350
H     -2.433023    0.121630    1.091174
H     -2.542778    -0.055092    -0.526896
N     0.418592    -0.350773    2.081453
H     -0.332311    0.011772    2.681618
H     0.517475    -1.333958    2.361112
H     1.272036    0.100493    2.433217
C     -0.396720    0.375150    -3.134234
N     -0.219527    0.202142    -1.993574
C     -0.616305    0.589436    -4.549290
H     0.342924    0.562529    -5.084517
H     -1.089496    1.567908    -4.710446
H     -1.271856    -0.196385    -4.949229
