11

Cr     0.000814    0.000821    -0.001962
C     -0.027724    2.100358    0.338018
O     -0.042766    3.211824    0.522044
C     2.100360    -0.038889    0.337442
O     3.211754    -0.060792    0.521175
C     0.026019    -2.098963    -0.343688
O     0.038196    -3.210271    -0.528876
C     -2.098920    0.037172    -0.342823
O     -3.210203    0.056225    -0.527555
Cl     -0.348806    -0.348543    2.173461
Cl     0.351283    0.351066    -2.177418
