20

Cr     0.029620    0.020092    0.035882
O     0.326898    1.979903    -0.236932
H     1.194848    2.395005    -0.427569
H     -0.364200    2.672312    -0.308405
O     1.999529    -0.281952    -0.205467
H     2.511607    -0.462800    -1.020915
H     2.630834    -0.285595    0.546014
O     -0.240263    -1.928138    0.366323
H     0.439339    -2.633171    0.305595
H     -1.113887    -2.356639    0.489548
O     -1.927805    0.317880    0.346186
H     -2.278038    0.468873    1.250367
H     -2.679564    0.387622    -0.278563
O     0.327065    0.299120    2.024148
H     0.490397    1.165092    2.454396
H     0.352735    -0.390527    2.721268
P     -0.373332    -0.300203    -2.513668
H     0.714822    0.094743    -3.316912
H     -0.647646    -1.622459    -2.910689
H     -1.446886    0.455682    -3.024894
