17

Cr     -0.000120    0.001482    -0.000039
F     -0.001139    1.869632    -0.000095
F     1.805763    0.002663    0.290331
F     0.000781    -1.866604    0.000086
F     -1.805917    0.000217    -0.290533
N     -0.211434    0.000359    2.075265
C     -0.152508    -0.000308    3.228186
C     -0.029735    -0.001149    4.680999
H     -0.956928    0.346441    5.148483
H     0.189177    -1.011570    5.042813
H     0.786613    0.662431    4.986130
N     0.211107    0.000435    -2.075660
C     0.152269    -0.000385    -3.228528
C     0.029875    -0.001133    -4.680978
H     0.968062    0.313786    -5.149036
H     -0.222323    -1.004469    -5.039964
H     -0.763541    0.688170    -4.988565
