22

Cr     -0.070786    0.082197    0.012692
P     -0.453283    2.573881    -0.418108
H     -1.776726    3.036322    -0.557599
H     0.169257    3.224752    -1.500927
H     -0.013213    3.350133    0.670961
P     2.439848    0.473097    0.305180
H     2.788001    0.417825    1.668075
H     3.006676    1.704429    -0.079322
H     3.358697    -0.429146    -0.264997
P     0.306337    -2.403790    0.522312
H     0.240275    -3.379063    -0.492254
H     -0.628891    -2.903940    1.448509
H     1.514608    -2.760643    1.152578
P     -2.572378    -0.335173    -0.356711
H     -3.333990    0.205687    0.696722
H     -3.055711    -1.658100    -0.394813
H     -3.215821    0.210758    -1.484722
F     -0.344326    0.344839    1.696757
P     0.337150    -0.350673    -2.570794
H     0.243768    0.738172    -3.461039
H     -0.522188    -1.262344    -3.217647
H     1.582700    -0.879207    -2.966610
