22

Cr     0.122753    0.110529    -0.043125
O     0.422755    2.080876    -0.250195
H     1.271307    2.469426    -0.550345
H     -0.288092    2.730320    -0.434419
O     2.077833    -0.184431    -0.315521
H     2.510112    -0.358890    -1.177026
H     2.759489    -0.216640    0.388957
O     -0.113737    -1.832102    0.377837
H     0.529558    -2.535003    0.144491
H     -0.998281    -2.250491    0.443658
O     -1.826057    0.406527    0.255837
H     -2.232499    0.594924    1.128240
H     -2.527223    0.426487    -0.428188
O     0.423847    0.397094    1.919601
H     0.598261    1.267277    2.336258
H     0.457140    -0.299304    2.609192
C     -0.377746    -0.334272    -3.122052
N     -0.189893    -0.170187    -1.980714
C     -0.610039    -0.537374    -4.532774
H     0.275339    -0.224715    -5.105739
H     -1.473968    0.060656    -4.858337
H     -0.811714    -1.600235    -4.730423
