23

Cr     -0.001433    -0.200650    -0.029540
N     0.166984    1.899374    -0.425186
H     0.181729    2.453120    0.441853
H     -0.590953    2.311883    -0.985326
H     1.028340    2.175070    -0.913498
N     2.113886    -0.422089    -0.252307
H     2.672813    0.335495    0.161569
H     2.408768    -0.453659    -1.236158
H     2.502764    -1.280535    0.157798
N     -0.242255    -2.312278    0.214868
H     -0.202308    -2.605292    1.199039
H     0.459349    -2.895742    -0.258017
H     -1.145628    -2.670532    -0.121226
N     -2.100444    0.047318    0.330948
H     -2.524493    -0.611313    0.996057
H     -2.657816    -0.053633    -0.527933
H     -2.352661    0.977613    0.688369
S     0.402191    0.321310    2.511394
H     -0.554437    -0.328686    3.215626
H     1.411251    -0.483449    2.920296
S     -0.543440    -0.556637    -2.569039
H     0.127841    -1.665573    -2.959842
H     0.241864    0.302793    -3.260108
