27

Cr     -0.011471    -0.002499    -0.042155
F     -0.298682    1.866358    -0.043017
F     1.761409    0.279357    0.242799
F     0.273618    -1.871073    -0.040979
F     -1.784331    -0.284189    -0.326769
C     -0.599414    -0.085779    4.787459
C     -0.722276    1.111919    4.081412
C     -0.553241    1.095135    2.697900
N     -0.279445    -0.036914    2.037386
C     -0.154327    -1.191908    2.703454
C     -0.309073    -1.257679    4.087307
H     -0.725402    -0.104859    5.868257
H     -0.943144    2.045831    4.591099
H     -0.617770    1.962626    2.046988
H     0.079889    -2.035869    2.060222
H     -0.202401    -2.209013    4.601774
C     0.613027    0.087623    -4.868057
C     0.318706    1.259026    -4.168419
C     0.151340    1.190771    -2.786139
N     0.266265    0.033934    -2.121368
C     0.543591    -1.097579    -2.781371
C     0.726141    -1.111920    -4.163212
H     0.750077    0.108137    -5.947649
H     0.219849    2.212017    -4.681499
H     -0.085184    2.033895    -2.142726
H     0.602163    -1.966163    -2.131228
H     0.952549    -2.044682    -4.672730
