25

Cr     -0.000396    -0.006257    0.000367
N     0.002221    1.968041    -0.001041
C     0.000646    3.160329    -0.000849
O     -0.000531    4.366080    -0.000857
N     1.973344    -0.007495    0.000761
C     3.165103    0.023670    0.008247
O     4.370536    0.051861    0.014985
N     -0.003801    -1.978835    0.001894
C     -0.019299    -3.170887    0.008572
O     -0.033028    -4.376472    0.014716
N     -1.973917    -0.001822    0.001080
C     -3.165578    0.035199    0.008439
O     -4.370784    0.069053    0.015109
N     -0.000059    -0.003948    2.086906
C     0.000124    -0.003099    3.239189
C     0.000128    -0.000784    4.695979
H     -0.227417    -1.003291    5.071267
H     0.982603    0.304327    5.069133
H     -0.755091    0.698301    5.068276
N     -0.000137    -0.005442    -2.086608
C     0.000131    -0.004024    -3.238896
C     0.000151    -0.000734    -4.695655
H     -0.429138    0.934967    -5.067019
H     1.024276    -0.095536    -5.069688
H     -0.594746    -0.838937    -5.071364
