25

Cr     -0.034964    -0.120111    -0.066459
O     0.277888    1.827560    0.199147
H     -0.424941    2.468980    0.425317
H     1.156350    2.222498    0.370005
O     1.959315    -0.263546    -0.323114
H     2.351228    -0.261364    -1.220828
H     2.509556    -0.854270    0.231896
O     -0.315573    -2.081881    -0.362262
H     -0.459081    -2.749032    0.337978
H     -0.503835    -2.489598    -1.230827
O     -1.977740    0.272797    0.270387
H     -2.441915    0.054646    1.104319
H     -2.641081    0.279696    -0.449581
N     0.239856    -0.483451    1.899073
C     0.415265    -0.637869    3.041458
C     0.629153    -0.835410    4.457938
H     1.233571    -1.738381    4.623216
H     1.152340    0.033761    4.880161
H     -0.338042    -0.953012    4.966235
N     -0.322908    0.168854    -2.042724
C     -0.458763    0.418753    -3.173773
C     -0.629201    0.725409    -4.576621
H     -1.658101    0.494825    -4.886352
H     -0.432857    1.792690    -4.749355
H     0.069220    0.127348    -5.178602
