63

Cr     0.004036    0.000640    -0.003167
O     0.012711    0.005863    2.174915
C     -0.269557    1.099715    3.029848
C     -0.167223    0.715660    4.316428
C     0.199285    -0.676704    4.324350
C     0.299377    -1.075738    3.042293
H     -0.490092    2.030469    2.541203
H     -0.330537    1.347264    5.179921
H     0.523263    -2.011837    2.565682
H     0.364810    -1.298360    5.194504
O     -0.001068    0.014803    -2.177853
C     -1.036332    0.473260    -3.026390
C     -0.683895    0.311016    -4.315054
C     0.633271    -0.271132    -4.331764
C     1.016976    -0.437837    -3.052509
H     -1.921089    0.836837    -2.539747
H     -1.287814    0.573706    -5.173645
H     1.916846    -0.794910    -2.588302
H     1.216855    -0.529595    -5.205661
C     0.073984    4.945052    -0.001785
C     1.045042    4.211341    0.684952
C     0.986123    2.824282    0.668289
N     0.015086    2.133077    0.009457
C     -0.926333    2.859583    -0.645756
C     -0.930025    4.247888    -0.675753
H     0.096356    6.031001    -0.006890
H     1.842534    4.704656    1.231654
H     1.724095    2.240500    1.202749
H     -1.708928    2.310081    -1.145948
H     -1.714017    4.767117    -1.217374
C     4.923440    0.094299    -0.026822
C     4.190406    0.927307    -0.876980
C     2.803473    0.877442    -0.844122
N     2.117866    0.040180    -0.018606
C     2.839880    -0.754993    0.811406
C     4.228199    -0.756750    0.834700
H     6.009484    0.111129    -0.033593
H     4.684252    1.611852    -1.559321
H     2.216696    1.519914    -1.488405
H     2.283348    -1.406127    1.469821
H     4.750043    -1.418565    1.517993
C     -0.087882    -4.936218    0.002372
C     -1.017416    -4.197708    0.739381
C     -0.956425    -2.811378    0.713121
N     -0.017354    -2.127091    0.003463
C     0.882291    -2.856838    -0.704267
C     0.877481    -4.245120    -0.731683
H     -0.114068    -6.021939    0.002869
H     -1.786044    -4.685875    1.329713
H     -1.667530    -2.222271    1.277517
H     1.634709    -2.309349    -1.251165
H     1.625339    -4.769316    -1.317417
C     -4.911737    -0.143201    0.004681
C     -4.173929    -0.955922    -0.860610
C     -2.787801    -0.892063    -0.832289
N     -2.108188    -0.058695    0.001543
C     -2.833973    0.715030    0.848710
C     -4.222189    0.701734    0.876954
H     -5.997463    -0.171110    0.001224
H     -4.662613    -1.635890    -1.550858
H     -2.196256    -1.517182    -1.488924
H     -2.280979    1.360343    1.516450
H     -4.748542    1.346569    1.572986
