17

Cr     0.004480    -0.007297    0.044487
C     -0.303454    2.109593    0.402176
O     -0.461003    3.204859    0.592461
C     2.121711    0.340019    -0.271608
O     3.217582    0.519695    -0.436723
C     0.319935    -2.123368    -0.312905
O     0.482872    -3.218565    -0.498440
C     -2.110928    -0.371022    0.355590
O     -3.204803    -0.562866    0.520655
P     0.446093    -0.374477    2.679499
H     1.576148    0.323699    3.149379
H     -0.629200    0.059816    3.479802
H     0.658556    -1.723913    3.024309
P     -0.458526    0.395814    -2.582161
H     0.615217    1.023395    -3.244157
H     -0.702889    -0.797173    -3.290765
H     -1.581437    1.214352    -2.815484
