27

Cr     0.079777    -0.072683    -0.032327
P     -0.256362    2.471790    0.400400
H     -1.493674    2.869896    0.942963
H     0.657624    3.083551    1.280811
H     -0.155963    3.286587    -0.743309
P     2.615878    0.328922    -0.472043
H     3.027086    1.666951    -0.627881
H     3.517310    -0.147322    0.499549
H     3.105536    -0.267445    -1.649834
P     0.463075    -2.613277    -0.454778
H     1.692812    -3.149938    -0.024981
H     -0.461131    -3.498002    0.134616
H     0.425568    -2.998151    -1.808197
P     -2.476203    -0.486619    0.248951
H     -2.992264    -1.582946    -0.468371
H     -2.965846    -0.726761    1.547806
H     -3.302977    0.565241    -0.189778
P     0.462356    -0.431711    2.513278
H     1.728321    -0.084699    3.024158
H     -0.396582    0.283954    3.370554
H     0.309721    -1.746230    2.996932
C     -0.269216    0.238058    -2.089932
N     -0.461131    0.407463    -3.220760
C     -0.698142    0.617286    -4.625452
H     -1.357399    -0.175955    -4.990070
H     0.261758    0.584632    -5.149169
H     -1.170415    1.595162    -4.757520
