55
03/24/2023 16:57, XYZ structure generated by mol3D Class, molSimplify
Cr     0.000105    -0.000664    -0.000544
N     0.228226    2.070248    0.293717
C     -0.199279    4.265623    0.555805
N     1.160174    4.041000    0.585714
C     1.387368    2.724750    0.430007
C     -0.771631    3.038479    0.373215
H     2.373343    2.289750    0.408254
H     1.875845    4.751347    0.704324
H     -1.816217    2.786809    0.302474
H     -0.627959    5.251131    0.663252
N     2.068959    -0.276850    0.300508
C     4.294461    -0.361977    -0.037310
N     3.997727    -0.729818    1.257262
C     2.666195    -0.666885    1.432881
C     3.093384    -0.082446    -0.625990
H     2.176589    -0.911727    2.361547
H     4.671742    -1.005354    1.964763
H     2.905005    0.244027    -1.635092
H     5.305461    -0.334055    -0.416309
N     -0.228099    -2.071579    -0.294850
C     0.199321    -4.266901    -0.557813
N     -1.160127    -4.042129    -0.586849
C     -1.387371    -2.725943    -0.430664
C     0.771723    -3.039789    -0.375199
H     -2.373338    -2.290952    -0.408223
H     -1.875866    -4.752439    -0.705262
H     1.816339    -2.788112    -0.304908
H     0.627911    -5.252392    -0.665776
N     -2.068885    0.275426    -0.301629
C     -4.294316    0.360980    0.036300
N     -3.997734    0.727098    -1.258793
C     -2.666221    0.663951    -1.434472
C     -3.093195    0.082219    0.625254
H     -2.176740    0.907581    -2.363518
H     -4.671824    1.001732    -1.966574
H     -2.904742    -0.242910    1.634771
H     -5.305277    0.333571    0.415440
N     -0.330991    -0.238882    2.062657
C     -0.649727    -1.187875    4.080355
N     -0.673630    0.185399    4.193911
C     -0.478803    0.725529    2.978312
C     -0.437736    -1.444665    2.754928
H     -0.459379    1.787106    2.792789
H     -0.817566    0.707365    5.052780
H     -0.354328    -2.401461    2.267152
H     -0.784139    -1.843385    4.928171
N     0.330992    0.237817    -2.063715
C     0.648662    1.186903    -4.081471
N     0.674399    -0.186361    -4.194816
C     0.480166    -0.726577    -2.979167
C     0.436197    1.443664    -2.756119
H     0.462044    -1.788151    -2.793452
H     0.819082    -0.708259    -5.053599
H     0.351494    2.400424    -2.268488
H     0.782296    1.842445    -4.929385
