24

Cr     0.055881    0.013211    -0.022068
N     -0.211250    2.131640    0.186214
H     -1.096709    2.477478    -0.203713
H     0.510100    2.701923    -0.273556
H     -0.217245    2.461888    1.159290
N     2.162634    0.246488    0.316165
H     2.431259    1.201774    0.581278
H     2.716858    0.052855    -0.528574
H     2.576188    -0.345219    1.046734
N     0.369455    -2.094917    -0.260802
H     0.429767    -2.390406    -1.243141
H     -0.356091    -2.699032    0.143949
H     1.245457    -2.433122    0.155918
N     -2.054036    -0.220572    -0.291648
H     -2.645270    0.317303    0.353989
H     -2.386463    -1.188208    -0.200457
H     -2.363174    0.062388    -1.229550
P     -0.299180    -0.366905    2.578209
H     0.707631    0.161320    3.411156
H     -0.377408    -1.711711    2.991922
H     -1.475067    0.195729    3.114164
S     0.575482    0.399225    -2.606843
H     -0.185095    -0.468315    -3.315250
H     -0.113730    1.495183    -3.001340
