22

Cr     -0.048578    0.035620    0.044564
N     -0.267860    2.141768    0.359488
H     -1.249677    2.406840    0.480465
H     0.236081    2.590170    1.130447
H     0.017082    2.620981    -0.501097
N     2.054759    0.290104    -0.269878
H     2.385844    1.237919    -0.066230
H     2.710506    -0.337914    0.204898
H     2.211233    0.173961    -1.277114
N     0.159124    -2.064052    -0.324703
H     1.134445    -2.346063    -0.459754
H     -0.227220    -2.734500    0.346957
H     -0.294218    -2.260725    -1.223826
N     -2.157014    -0.221468    0.333855
H     -2.427206    -1.202513    0.447494
H     -2.620113    0.276637    1.099940
H     -2.616474    0.082846    -0.531536
N     0.298651    -0.223382    2.159459
H     -0.461456    0.120821    2.753702
H     0.418494    -1.204274    2.428513
H     1.140215    0.247608    2.505600
Cl     -0.397415    0.370315    -2.136918
