27

Cr     0.088902    -0.094485    -0.009281
N     -0.134257    2.008894    0.292698
H     -1.116086    2.292935    0.387699
H     0.336264    2.414776    1.110583
H     0.208060    2.545519    -0.512986
N     2.192239    0.159236    -0.296158
H     2.536508    1.097149    -0.058578
H     2.812920    -0.483929    0.210671
H     2.432954    0.044782    -1.287898
N     0.294772    -2.188889    -0.385525
H     1.267740    -2.481936    -0.532057
H     -0.066655    -2.836209    0.325615
H     -0.185608    -2.450225    -1.254967
N     -2.017159    -0.350980    0.271106
H     -2.293638    -1.335615    0.358987
H     -2.441159    0.108608    1.086056
H     -2.544986    -0.004116    -0.538661
N     0.416807    -0.346914    2.077015
H     -0.334866    0.018383    2.674349
H     0.514264    -1.329670    2.358434
H     1.270023    0.105563    2.427733
C     -0.396006    0.376568    -3.157624
N     -0.220634    0.204126    -2.017359
C     -0.613917    0.590478    -4.573670
H     0.345299    0.558356    -5.108142
H     -1.082118    1.570973    -4.735665
H     -1.273309    -0.192312    -4.972758
