21

Cr     0.019234    0.003350    -0.108261
C     0.060732    0.007936    2.218394
O     0.070276    0.006122    3.341689
O     -0.008995    1.995370    0.057225
H     0.761610    2.600957    -0.006028
H     -0.818581    2.550910    0.053097
O     2.026462    -0.008674    -0.070242
H     2.629509    0.013633    -0.845634
H     2.596310    -0.035792    0.730627
O     -0.013082    -1.987234    0.074172
H     0.755305    -2.593693    -0.004282
H     -0.823293    -2.541606    0.076537
O     -1.996735    0.003809    0.002153
H     -2.538574    0.003180    0.821660
H     -2.623697    -0.006975    -0.753862
C     -0.006455    -0.000229    -2.174232
N     -0.012753    -0.000431    -3.331088
C     -0.020606    -0.001337    -4.771395
H     -0.629704    -0.845800    -5.111462
H     1.011861    -0.114511    -5.119892
H     -0.438826    0.951013    -5.114819
