19

Cr     0.107770    -0.037436    -0.063918
O     0.344673    1.961136    0.129543
C     1.492782    2.389849    0.285020
H     1.700346    3.461685    0.413745
C     2.569504    1.276779    0.287100
H     3.650005    1.448151    0.395537
O     2.096596    0.142601    0.159333
O     -0.115765    -2.025939    0.116045
C     -0.246036    -2.498568    1.250075
H     -0.355328    -3.578992    1.421329
C     -0.244947    -1.421708    2.362981
H     -0.375646    -1.629210    3.434603
O     -0.087505    -0.273844    1.934389
O     -1.890438    0.157761    -0.300718
C     -2.318813    0.315404    -1.448688
H     -3.390376    0.446738    -1.656057
C     -1.205888    0.316766    -2.525405
H     -1.377329    0.426393    -3.605785
O     -0.071933    0.186181    -2.052764
