35

Cr     -0.209412    0.294767    0.312551
C     0.134390    2.349834    0.587798
N     0.325756    3.479939    0.754003
C     0.562565    4.881781    0.963477
H     1.228643    5.246038    0.176592
H     1.027026    5.014827    1.944321
H     -0.394889    5.408123    0.922999
C     1.839567    -0.004932    -0.041745
N     2.971469    -0.173178    -0.219590
C     4.376233    -0.382637    -0.438387
H     4.500255    -1.152623    -1.204654
H     4.831442    -0.706813    0.501365
H     4.823018    0.558219    -0.770933
C     -0.548380    -1.754046    -0.006349
N     -0.731184    -2.886426    -0.166036
C     -0.957562    -4.291843    -0.362309
H     -1.942752    -4.427924    -0.816561
H     -0.916423    -4.791261    0.609476
H     -0.178735    -4.683123    -1.022450
C     -2.266850    0.593557    0.622587
N     -3.398700    0.752690    0.809805
C     -4.802542    0.948995    1.046221
H     -4.945315    1.927429    1.512804
H     -5.159003    0.156599    1.709938
H     -5.328542    0.905665    0.088617
C     0.081332    -0.045026    2.350506
N     0.241525    -0.233094    3.481636
C     0.440094    -0.466851    4.884688
H     1.195423    -1.248014    5.005774
H     -0.508826    -0.786372    5.323887
H     0.778699    0.462795    5.349971
P     -0.596103    0.736705    -2.181539
H     0.553048    0.921142    -2.972147
H     -1.288763    -0.261909    -2.890526
H     -1.348620    1.886987    -2.482163
