53

Cr     -0.004580    -0.059780    -0.088814
C     -0.207653    -0.306308    2.088834
O     -0.277391    -0.442203    3.205704
C     0.269180    0.109420    -2.154991
N     0.448443    0.160190    -3.298590
C     0.666185    0.217546    -4.718036
H     0.177774    -0.642759    -5.183796
H     1.742087    0.190977    -4.910688
H     0.236641    1.147333    -5.099573
C     -0.249230    4.811696    0.393976
C     0.512212    4.048534    1.282921
C     0.577535    2.673425    1.106733
N     -0.082722    2.031368    0.106795
C     -0.827167    2.779534    -0.748174
C     -0.926090    4.159336    -0.640102
H     -0.311932    5.890368    0.503219
H     1.052897    4.508730    2.103112
H     1.181617    2.064112    1.769458
H     -1.356135    2.245004    -1.528197
H     -1.527681    4.709577    -1.355723
C     4.846347    0.110531    0.617742
C     4.074018    -0.877442    1.235501
C     2.706447    -0.908954    1.000394
N     2.076906    -0.009620    0.196868
C     2.837864    0.943721    -0.404392
C     4.210985    1.030778    -0.221371
H     5.917964    0.162080    0.786689
H     4.520929    -1.618203    1.891412
H     2.089760    -1.676434    1.453630
H     2.319934    1.653048    -1.038118
H     4.769975    1.810301    -0.729560
C     -0.060655    -4.941054    -0.460228
C     -1.037701    -4.276703    0.286485
C     -0.991523    -2.892586    0.378027
N     -0.027401    -2.148715    -0.228609
C     0.919523    -2.803654    -0.951118
C     0.932325    -4.184413    -1.089217
H     -0.072126    -6.023573    -0.548641
H     -1.827832    -4.820589    0.794790
H     -1.746852    -2.354644    0.938290
H     1.682406    -2.193437    -1.419010
H     1.710976    -4.656308    -1.679894
C     -4.910579    0.070958    -0.420120
C     -4.246349    0.749544    0.605163
C     -2.861216    0.686701    0.667402
N     -2.115897    -0.019349    -0.223179
C     -2.769701    -0.678642    -1.214494
C     -4.152500    -0.650787    -1.346236
H     -5.993703    0.103636    -0.495819
H     -4.789820    1.326883    1.346297
H     -2.325336    1.223618    1.441787
H     -2.161055    -1.247109    -1.908127
H     -4.623605    -1.189323    -2.162677
