17

Cr     -0.010497    0.010279    0.020436
Cl     -0.360267    2.320826    0.393980
Cl     2.290652    0.396208    -0.330534
Cl     0.339641    -2.300703    -0.354750
Cl     -2.310961    -0.375821    0.370952
C     0.352535    -0.282851    2.033637
N     0.552774    -0.456610    3.168996
C     0.797783    -0.680362    4.541808
H     1.509387    -1.503371    4.661410
H     -0.138048    -0.938641    5.047328
H     1.214235    0.223738    4.996936
C     -0.367756    0.298516    -1.993957
N     -0.560639    0.464149    -3.131802
C     -0.783897    0.666179    -4.511640
H     -1.408206    -0.140644    -4.908224
H     0.172778    0.674124    -5.043350
H     -1.290618    1.623431    -4.669443
