34

Cr     0.068439    -0.095100    0.061339
C     0.402938    1.965538    -0.199885
N     0.583593    3.101776    -0.332268
C     0.807204    4.512339    -0.494454
H     1.787498    4.660912    -0.955459
H     0.776138    4.986455    0.490335
H     0.021265    4.919938    -1.136104
C     2.121110    -0.411892    0.398347
N     3.247427    -0.594647    0.595567
C     4.644662    -0.824295    0.842017
H     5.026742    -1.507181    0.078108
H     4.755162    -1.267426    1.835548
H     5.170544    0.133045    0.792833
C     -0.268074    -2.154440    0.325959
N     -0.448681    -3.291096    0.449786
C     -0.670862    -4.703528    0.590863
H     -1.289779    -5.043846    -0.243923
H     -1.180706    -4.884707    1.540904
H     0.296841    -5.212330    0.576021
C     -1.987152    0.184466    -0.285265
N     -3.122817    0.328494    -0.459673
C     -4.533495    0.503478    -0.671931
H     -4.797450    1.537690    -0.434670
H     -5.072703    -0.186428    -0.017030
H     -4.760029    0.285511    -1.719365
C     -0.230801    0.216753    2.091481
N     -0.397025    0.382143    3.224872
C     -0.602557    0.588116    4.631643
H     -0.575043    -0.382396    5.134565
H     -1.576788    1.062891    4.776755
H     0.194279    1.234119    5.010215
S     0.444062    -0.546025    -2.421498
H     -0.386230    0.335350    -3.023447
H     1.561595    0.166130    -2.690434
