17

Cr     -0.171926    0.058423    0.201483
S     0.192792    2.546752    0.592360
H     1.422287    2.663192    1.141561
H     0.578250    2.944174    -0.640474
S     2.344206    -0.254405    -0.125068
H     2.631941    -1.535906    0.194291
H     2.387855    -0.453058    -1.460755
S     -0.769646    -2.399896    -0.135296
H     0.037149    -3.134414    0.662178
H     -0.125691    -2.689063    -1.285770
S     -2.648343    0.452484    0.730861
H     -3.211444    -0.368936    -0.182987
H     -2.866579    1.568268    -0.000325
S     0.168175    -0.430885    2.729771
H     1.260150    0.260633    3.124163
H     -0.711994    0.376463    3.362015
Cl     -0.503341    0.391721    -1.932063
