10

Cr     -0.157076    0.122442    0.140063
I     0.390169    2.807693    0.443170
I     2.601353    -0.379121    -0.171377
I     -0.654736    -2.624506    -0.139908
I     -2.851892    0.634342    0.047428
O     0.081167    -0.238866    2.176523
H     0.075988    -1.219083    2.206164
H     1.003835    0.022816    2.362950
C     -0.230719    0.369291    -1.853421
O     -0.258089    0.504990    -2.985153
