20

Cr     0.030188    0.019021    0.041451
O     0.325119    1.983625    -0.238201
H     1.194297    2.397805    -0.422894
H     -0.363231    2.679351    -0.296857
O     2.004808    -0.280610    -0.202084
H     2.519737    -0.461170    -1.015548
H     2.631260    -0.296762    0.553028
O     -0.236628    -1.935505    0.375177
H     0.439597    -2.642399    0.306257
H     -1.110406    -2.361235    0.503480
O     -1.931782    0.314407    0.353026
H     -2.274996    0.471891    1.258625
H     -2.685985    0.389605    -0.267773
O     0.324349    0.300132    2.039841
H     0.499399    1.163255    2.470462
H     0.348890    -0.390544    2.735509
P     -0.378476    -0.304920    -2.527034
H     0.714598    0.084763    -3.326016
H     -0.659649    -1.628364    -2.915263
H     -1.449796    0.458342    -3.031713
