67

Cr     -0.017565    0.010654    0.001330
C     -0.082580    4.995071    0.134046
C     1.124790    4.296776    0.067194
C     1.104662    2.908764    0.028248
N     -0.044076    2.180271    0.048757
C     -1.211882    2.873694    0.113919
C     -1.269280    4.260905    0.157781
H     -0.098428    6.080256    0.165764
H     2.077108    4.816263    0.045036
H     2.022536    2.343614    -0.014430
H     -2.117431    2.288555    0.124265
H     -2.236142    4.750909    0.208896
C     4.978285    -0.083388    -0.028114
C     4.263678    -0.321729    1.146945
C     2.875626    -0.270413    1.120579
N     2.163383    0.003191    -0.004727
C     2.872678    0.236215    -1.141494
C     4.260490    0.202739    -1.190923
H     6.063649    -0.121493    -0.036781
H     4.770222    -0.548247    2.079443
H     2.302847    -0.463286    2.014742
H     2.298010    0.462136    -2.026901
H     4.764048    0.396956    -2.132228
C     -0.045890    -4.977805    -0.116402
C     -1.237759    -4.255255    -0.037146
C     -1.189508    -2.867581    -0.003789
N     -0.027185    -2.162197    -0.043048
C     1.125202    -2.879406    -0.126080
C     1.154982    -4.267452    -0.163060
H     -0.051516    -6.063293    -0.142977
H     -2.200482    -4.754707    -0.000523
H     -2.096582    -2.288507    0.066146
H     2.038890    -2.308142    -0.174126
H     2.110665    -4.777464    -0.226781
C     -4.995778    -0.007632    0.010538
C     -4.280339    -0.080113    -1.186136
C     -2.891715    -0.074206    -1.149494
N     -2.182014    0.004277    0.007030
C     -2.890246    0.079146    1.166018
C     -4.278604    0.072944    1.206361
H     -6.081931    -0.014725    0.010704
H     -4.786384    -0.143877    -2.143704
H     -2.314651    -0.139177    -2.058992
H     -2.312030    0.154387    2.074308
H     -4.783069    0.133421    2.165238
C     0.152279    -0.095103    4.976681
C     0.318200    1.103166    4.280574
C     0.245692    1.098598    2.893330
N     0.015134    -0.026212    2.166711
C     -0.147125    -1.186888    2.857347
C     -0.085725    -1.258845    4.242831
H     0.205260    -0.120462    6.060864
H     0.502831    2.037604    4.800167
H     0.378253    2.010489    2.331736
H     -0.334110    -2.073285    2.271004
H     -0.222899    -2.217506    4.732432
C     0.059807    0.125964    -4.979241
C     0.174050    -1.083298    -4.291705
C     0.138700    -1.080285    -2.903180
N     -0.005916    0.052554    -2.166620
C     -0.120725    1.223899    -2.848828
C     -0.091108    1.298092    -4.235508
H     0.085149    0.153491    -6.064445
H     0.288392    -2.024736    -4.818928
H     0.223957    -2.001016    -2.347489
H     -0.241714    2.116547    -2.254539
H     -0.185785    2.265071    -4.718981
