15

Cr     0.024717    0.015224    -0.076281
C     -0.316283    2.141300    -0.319087
O     -0.494863    3.241578    -0.440610
C     2.157396    0.339613    -0.314626
O     3.259775    0.508163    -0.431687
C     0.376934    -2.092518    0.308781
O     0.557207    -3.179450    0.517517
C     -2.086029    -0.306152    0.311561
O     -3.174682    -0.471649    0.523543
C     0.325611    0.346161    2.092129
O     0.475932    0.520919    3.189499
N     -0.235219    -0.223419    -2.116537
H     -1.161367    0.081798    -2.461134
H     0.446959    0.291174    -2.699322
H     -0.155664    -1.209560    -2.418368
