29

Fe     0.161986    -0.106394    -0.147732
N     -0.814042    1.858811    -0.456135
C     -1.328283    2.874656    -0.248877
C     -1.975048    4.150854    0.027000
H     -2.951521    4.191848    -0.465123
H     -2.113996    4.263076    1.107114
H     -1.354879    4.974155    -0.340343
N     2.126814    0.869442    -0.458440
C     3.142528    1.384973    -0.253813
C     4.418454    2.033948    0.017996
H     4.466745    2.998687    -0.496148
H     4.522167    2.197394    1.095523
H     5.242776    1.402992    -0.328054
N     1.137312    -2.071471    -0.457596
C     1.649857    -3.087901    -0.248974
C     2.295028    -4.364498    0.028728
H     3.273552    -4.405430    -0.459316
H     2.429425    -4.477461    1.109340
H     1.676196    -5.187371    -0.341812
N     -1.803343    -1.081729    -0.456152
C     -2.818346    -1.597535    -0.248622
C     -4.093455    -2.246393    0.027260
H     -4.918760    -1.616197    -0.317826
H     -4.142754    -3.212016    -0.485124
H     -4.194478    -2.408080    1.105315
N     0.164758    -0.108021    3.048245
C     0.164333    -0.107522    1.879070
C     0.159394    -0.105823    -2.744829
O     0.157808    -0.105313    -3.877091
