17

Fe     -0.083357    -0.166309    0.276087
S     -0.522918    1.954787    1.335247
H     0.645087    2.469103    1.780151
H     -0.547939    2.711667    0.215125
S     2.283905    0.174053    -0.045620
H     2.132592    0.849507    -1.208580
H     2.666572    1.263039    0.657581
S     0.130087    -2.332933    -0.834441
H     1.452558    -2.536690    -1.024789
H     -0.084933    -1.886291    -2.091945
S     -2.468573    -0.609577    0.158934
H     -3.041113    -0.527891    1.382280
H     -2.939814    0.579576    -0.265089
S     0.218253    -1.310061    2.399554
H     1.275524    -0.734168    3.012578
H     -0.675722    -0.754073    3.246513
Cl     -0.427303    0.850049    -1.787616
