19
03/24/2023 16:57, XYZ structure generated by mol3D Class, molSimplify
Fe     0.001505    -0.001308    0.009176
O     -0.480064    2.074761    0.333854
H     -0.249371    2.834973    -0.229847
H     -0.375525    2.382656    1.252823
O     2.129939    0.140624    -0.362560
H     2.369009    0.343292    -1.285100
H     2.819450    0.546903    0.191633
O     0.309225    -2.051917    -0.505147
H     1.243975    -2.321399    -0.570009
H     -0.186569    -2.842816    -0.227224
O     -2.073522    -0.354678    0.539774
H     -2.598616    0.450359    0.702508
H     -2.687807    -0.990680    0.131751
O     0.268202    -0.162118    2.120381
H     1.057307    -0.408803    2.634455
H     -0.505272    -0.481516    2.619143
O     -0.145572    0.341387    -2.121258
H     -0.722958    0.976342    -2.582102
H     -0.173327    -0.476076    -2.652254
