33

Fe     0.018742    -0.084349    0.206964
O     0.549050    2.025309    0.068817
H     1.026991    2.385362    -0.699143
H     0.010958    2.756187    0.421843
O     2.093899    -0.694678    -0.145835
H     2.649901    -0.330356    -0.856040
H     2.693037    -0.903143    0.592303
O     -0.364092    -2.157907    0.031941
H     0.335524    -2.810208    -0.140567
H     -1.200350    -2.505961    -0.321387
O     -2.129948    0.059943    -0.138053
H     -2.816198    0.249439    0.523837
H     -2.486894    0.309318    -1.007573
O     0.016972    0.012852    -2.146932
C     0.522859    -0.904473    -3.066690
C     0.293308    -0.470994    -4.326811
C     -0.395675    0.787469    -4.220510
C     -0.544351    1.045682    -2.901064
H     0.993929    -1.779571    -2.648941
H     0.577119    -0.978320    -5.238673
H     -0.968674    1.862130    -2.337456
H     -0.729165    1.414661    -5.035972
C     -0.024473    0.083194    5.111586
C     0.804124    0.949419    4.395775
C     0.785745    0.902423    3.007745
N     -0.002745    0.045614    2.316149
C     -0.798134    -0.797264    3.018101
C     -0.839135    -0.805364    4.406225
H     -0.034663    0.099117    6.197333
H     1.453763    1.655609    4.901745
H     1.408256    1.567030    2.418557
H     -1.401833    -1.488296    2.438685
H     -1.496053    -1.497957    4.921529
