33

Fe     -0.371903    0.038742    -0.037249
N     -0.077349    1.967480    0.246890
C     0.090005    3.101444    0.409703
C     0.297926    4.529230    0.615736
H     0.566335    5.009291    -0.331075
H     -0.618752    4.988298    1.000076
H     1.105440    4.689775    1.337452
N     1.546569    -0.297585    0.273725
C     2.670593    -0.501121    0.462709
C     4.085903    -0.756399    0.699427
H     4.622677    -0.798726    -0.253940
H     4.512251    0.043701    1.313266
H     4.212016    -1.710812    1.220971
N     -0.672932    -1.886106    -0.336319
C     -0.858098    -3.011241    -0.535923
C     -1.091735    -4.426324    -0.795367
H     -1.722995    -4.542971    -1.682542
H     -0.138699    -4.937069    -0.967932
H     -1.593528    -4.887710    0.061352
N     -2.291226    0.373385    -0.335945
C     -3.419374    0.579467    -0.493680
C     -4.840208    0.843020    -0.684787
H     -5.247785    1.347020    0.197830
H     -4.989023    1.483739    -1.560072
H     -5.378522    -0.098057    -0.836865
P     -0.768042    -0.280783    2.290624
H     -2.100737    -0.425078    2.725797
H     -0.327774    0.718397    3.182095
H     -0.191515    -1.415116    2.896595
P     0.049361    0.381969    -2.357565
H     -0.828091    1.240546    -3.050195
H     0.045978    -0.722447    -3.233754
H     1.282647    0.966087    -2.709787
