37

Fe     -0.057580    -0.024049    0.093901
N     -0.587721    1.947567    -0.308631
H     -0.492950    2.337773    -1.244577
P     -0.418228    3.098293    0.811863
H     -1.320010    3.008131    1.880756
H     0.817283    3.279216    1.473530
H     -0.654484    4.385517    0.290182
N     1.977359    0.378040    -0.027739
H     2.309998    1.256857    -0.420962
P     3.028343    -0.824647    -0.268047
H     3.288643    -1.633597    0.847216
H     2.774789    -1.778637    -1.277521
H     4.307364    -0.350155    -0.622429
N     0.502403    -1.997807    0.500567
H     0.382799    -2.263223    1.478600
P     -0.051093    -3.179324    -0.461564
H     0.697787    -3.337171    -1.634296
H     0.014753    -4.451115    0.140580
H     -1.377276    -3.130122    -0.939368
N     -2.070821    -0.516955    0.276229
H     -2.327040    -1.203715    0.984729
P     -3.236930    0.573212    0.056054
H     -3.207126    1.115625    -1.233622
H     -4.534344    0.036625    0.174179
H     -3.339628    1.731523    0.865036
N     0.028514    0.536625    2.085844
H     -0.761400    0.260781    2.667709
P     1.414989    0.514001    2.914933
H     2.284858    1.564497    2.592499
H     1.232762    0.646567    4.304994
H     2.266012    -0.611787    2.835391
N     -0.307619    -0.645346    -1.920856
H     -1.315512    -0.805681    -1.960954
P     0.288325    -0.035975    -3.282945
H     1.687938    -0.043432    -3.228466
H     -0.012384    -0.730830    -4.472815
H     0.020710    1.303949    -3.669844
