55
03/24/2023 16:57, XYZ structure generated by mol3D Class, molSimplify
Fe     0.000123    -0.000768    -0.000558
N     0.238862    2.208431    0.318582
C     -0.168004    4.411652    0.564433
N     1.191180    4.177719    0.591438
C     1.395588    2.848629    0.443774
C     -0.745187    3.182600    0.394167
H     2.375057    2.395701    0.424712
H     1.912922    4.879251    0.699973
H     -1.791130    2.929189    0.323346
H     -0.585841    5.401657    0.664586
N     2.222446    -0.298325    0.329999
C     4.456025    -0.337279    0.018442
N     4.152090    -0.756377    1.296519
C     2.807096    -0.718370    1.445156
C     3.251213    -0.056552    -0.568013
H     2.302649    -0.997638    2.357771
H     4.818271    -1.045259    2.001746
H     3.056156    0.297244    -1.568529
H     5.470545    -0.281984    -0.345535
N     -0.238789    -2.209930    -0.319853
C     0.168010    -4.413213    -0.566584
N     -1.191132    -4.178961    -0.592782
C     -1.395654    -2.849939    -0.444662
C     0.745154    -3.184158    -0.396249
H     -2.375107    -2.397003    -0.425013
H     -1.912959    -4.880429    -0.701160
H     1.791130    -2.930775    -0.325822
H     0.585740    -5.403214    -0.667232
N     -2.222339    0.296611    -0.331123
C     -4.456108    0.336522    -0.018794
N     -4.152425    0.753278    -1.297692
C     -2.807471    0.714749    -1.446726
C     -3.250996    0.056648    0.567477
H     -2.303362    0.992375    -2.360022
H     -4.818776    1.041105    -2.003191
H     -3.055666    -0.295458    1.568527
H     -5.470491    0.282047    0.345696
N     -0.359901    -0.218455    2.211559
C     -0.682596    -1.172675    4.228302
N     -0.720955    0.200465    4.346099
C     -0.522519    0.735768    3.119363
C     -0.458560    -1.418189    2.900210
H     -0.507822    1.797408    2.926813
H     -0.874400    0.720466    5.200893
H     -0.364827    -2.369841    2.400834
H     -0.816013    -1.829176    5.074449
N     0.359923    0.217373    -2.212707
C     0.681901    1.172251    -4.229452
N     0.722084    -0.200842    -4.347180
C     0.524015    -0.736548    -3.120552
C     0.457176    1.417209    -2.901372
H     0.510613    -1.798227    -2.928103
H     0.876421    -0.720600    -5.201961
H     0.362059    2.368685    -2.401925
H     0.814674    1.828990    -5.075518
