27

Fe     0.000262    0.000132    -0.012685
C     0.047241    2.328102    -0.155036
O     0.114484    3.445448    -0.279405
C     2.324636    0.078392    0.175170
O     3.436761    0.151517    0.337346
C     -0.047409    -2.328143    -0.155167
O     -0.114769    -3.445591    -0.279606
C     -2.324645    -0.078465    0.175190
O     -3.436771    -0.151386    0.337251
O     -0.000146    -0.000095    2.104344
C     -0.590237    0.963852    2.954319
C     -0.376453    0.616416    4.237089
C     0.376544    -0.616441    4.237114
C     0.590164    -0.963972    2.954336
H     -1.090561    1.784618    2.465184
H     -0.711355    1.166425    5.106708
H     1.090792    -1.784552    2.465154
H     0.710835    -1.166898    5.106716
O     -0.000073    -0.000222    -2.119607
C     -1.029844    0.466628    -2.970937
C     -0.658334    0.297497    -4.253027
C     0.658699    -0.296862    -4.252979
C     1.029968    -0.466646    -2.970869
H     -1.904741    0.863471    -2.481257
H     -1.247305    0.559194    -5.122119
H     1.904948    -0.863415    -2.481187
H     1.247438    -0.559113    -5.122040
