25

Fe     0.495272    -0.082261    -0.028262
S     0.739992    2.306966    0.371320
H     1.754649    2.395342    1.258721
H     1.483012    2.766094    -0.658449
S     2.866373    -0.369526    0.345247
H     3.013947    -1.507980    1.056575
H     3.380603    -0.897608    -0.786398
S     0.047611    -2.425039    -0.427086
H     0.442006    -3.093660    0.677970
H     1.060437    -2.891580    -1.188880
S     -1.860437    0.421455    -0.419862
H     -2.500346    0.088664    0.721727
H     -2.329392    -0.648206    -1.099474
C     0.184699    -0.317656    1.879898
N     -0.009379    -0.442024    3.020149
C     -0.252153    -0.577344    4.428274
H     0.168546    -1.524581    4.774405
H     -1.330097    -0.561495    4.607164
H     0.224018    0.255323    4.951863
C     0.776586    0.180582    -1.938585
N     0.924858    0.352623    -3.079321
C     1.090676    0.574005    -4.487706
H     0.465459    -0.135967    -5.034726
H     2.140878    0.426230    -4.750899
H     0.787063    1.596738    -4.724645
