21

Fe     -0.192675    -0.134340    -0.042975
S     0.213250    2.306903    0.355613
H     -0.157453    3.018763    -0.730944
H     1.527027    2.596491    0.227917
S     2.252311    -0.495704    -0.352119
H     2.472361    -1.810411    -0.573951
H     2.557795    -0.134838    -1.617633
S     -0.611433    -2.577226    -0.432614
H     -0.600866    -3.249863    0.738454
H     -1.930944    -2.774903    -0.650474
S     -2.643523    0.238507    0.264918
H     -2.983736    -0.379829    1.415921
H     -2.867822    1.479766    0.752394
N     0.095140    -0.336334    2.006731
H     -0.222884    -1.226227    2.398010
H     -0.391965    0.386624    2.543679
H     1.078128    -0.259100    2.284268
N     -0.457956    0.086169    -2.091025
H     -1.443983    0.128347    -2.363154
H     -0.057669    -0.681767    -2.637288
H     -0.035911    0.936374    -2.472050
