31

Fe     -0.125064    0.185097    0.038023
O     -0.244979    2.189180    0.374723
H     -0.601886    2.268516    1.281819
N     -1.157750    2.963391    -0.490401
H     -0.529770    3.218175    -1.258764
H     -1.301132    3.843276    0.017810
O     1.861125    0.461812    0.214380
H     1.976604    1.410185    0.423790
N     2.556650    -0.241207    1.314557
H     2.531003    -1.208165    0.962178
H     3.530313    0.067585    1.218281
O     -0.004397    -1.785555    -0.333713
H     0.397679    -1.731890    -1.255244
N     0.958845    -2.578288    0.448828
H     0.508377    -2.599170    1.370925
H     0.852687    -3.523232    0.065370
O     -2.106699    -0.100351    -0.235855
H     -2.183731    -1.067381    -0.388131
N     -2.505775    0.509943    -1.519767
H     -3.455596    0.166020    -1.696162
H     -2.585842    1.499640    -1.247837
O     -0.543397    0.081778    2.039240
H     -1.483710    -0.171289    2.100650
N     0.140754    -0.946471    2.857417
H     1.115282    -0.634407    2.746471
H     -0.125923    -0.695382    3.815929
O     0.121579    0.525363    -1.937345
H     -0.840301    0.482553    -2.230866
N     0.802768    -0.609829    -2.567250
H     0.506136    -0.598556    -3.548386
H     1.777937    -0.300476    -2.569788
