29

Fe     -0.000000    0.000043    -0.000013
C     0.000052    0.000051    1.878884
O     -0.000018    0.000031    3.012023
C     -0.000054    0.000048    -1.879017
O     0.000015    0.000027    -3.012147
C     -0.000462    1.944468    -0.000257
N     -0.000619    3.103303    -0.000581
C     0.000145    4.537304    0.000124
H     0.836939    4.890812    -0.606956
H     0.107711    4.889637    1.028795
H     -0.943397    4.892192    -0.421170
C     1.944518    0.000469    -0.000270
N     3.103220    0.000618    -0.000559
C     4.537293    -0.000080    0.000157
H     4.890831    -0.836841    -0.606949
H     4.889616    -0.107673    1.028825
H     4.892125    0.943515    -0.421054
C     0.000464    -1.944498    -0.000250
N     0.000625    -3.103213    -0.000561
C     -0.000146    -4.537278    0.000117
H     -0.836974    -4.890746    -0.606936
H     -0.107701    -4.889618    1.028784
H     0.943425    -4.892142    -0.421123
C     -1.944512    -0.000216    0.000322
N     -3.103222    -0.000242    0.000507
C     -4.537288    -0.000107    0.000024
H     -4.890376    -0.606724    -0.837333
H     -4.891009    1.027948    -0.107563
H     -4.891200    -0.421087    0.944170
