20

Fe     0.012218    -0.063476    -0.093623
S     -0.480628    2.554959    -0.624243
H     -0.802823    3.209546    0.510806
H     0.668699    3.235285    -0.823318
S     2.641202    0.369479    -0.528228
H     3.362078    -0.741078    -0.264275
H     3.132794    1.065591    0.518355
S     0.409783    -2.687677    0.269506
H     1.434477    -2.810629    1.139348
H     -0.515599    -3.175208    1.123853
S     -2.608000    -0.443410    0.380704
H     -3.079301    -1.317950    -0.534418
H     -3.299244    0.607291    -0.111697
S     0.427432    0.233481    2.529885
H     0.301854    1.542974    2.835064
H     -0.734918    -0.121508    3.120010
N     -0.189095    -0.321200    -2.242493
H     -1.050526    0.085741    -2.617727
H     0.575048    0.097425    -2.781848
H     -0.205542    -1.310477    -2.508587
