15

Fe     -0.074418    -0.093275    0.013827
C     -0.419627    2.145408    -0.338771
O     -0.589710    3.239874    -0.543219
C     2.167482    0.264775    0.325166
O     3.264529    0.442195    0.508503
C     0.251930    -2.352362    0.345665
O     0.417348    -3.457513    0.482041
C     -2.329628    -0.479773    -0.278739
O     -3.432273    -0.675594    -0.393778
S     -0.572396    0.257229    2.614754
H     0.282781    -0.590256    3.231088
H     0.126028    1.370143    2.935625
S     0.333938    -0.543262    -2.587656
H     -0.689651    0.099572    -3.194766
H     1.263684    0.372857    -2.942211
