59

Fe     0.004250    -0.003289    -0.172003
O     -0.001016    -0.004440    2.184898
H     0.774337    0.046379    2.768475
H     -0.775544    -0.081289    2.766760
C     -0.077393    5.086018    -0.173953
C     -0.302048    4.368994    -1.349147
C     -0.291245    2.978629    -1.300377
N     -0.071176    2.282628    -0.164754
C     0.141682    2.987896    0.968348
C     0.146190    4.378069    1.008385
H     -0.076529    6.171632    -0.178726
H     -0.481758    4.872338    -2.293340
H     -0.461360    2.385274    -2.189822
H     0.305477    2.397041    1.861848
H     0.320649    4.891313    1.948412
C     5.007672    0.189024    0.581097
C     4.291342    -0.971487    0.873523
C     2.923060    -0.998116    0.624923
N     2.245308    0.052198    0.113253
C     2.949085    1.172345    -0.164511
C     4.319008    1.280861    0.050425
H     6.077289    0.241270    0.761435
H     4.780375    -1.847750    1.285117
H     2.335808    -1.884199    0.831831
H     2.382109    2.001267    -0.571200
H     4.831466    2.205931    -0.192975
C     0.117164    -5.094803    -0.109939
C     -0.127262    -4.369069    1.057293
C     -0.123403    -2.980109    0.995437
N     0.103451    -2.290382    -0.144883
C     0.349437    -3.003730    -1.264261
C     0.366273    -4.395098    -1.290614
H     0.115182    -6.180322    -0.097647
H     -0.317729    -4.866954    2.002543
H     -0.298967    -2.376667    1.877705
H     0.535067    -2.425385    -2.160625
H     0.572377    -4.912920    -2.221706
C     -5.029099    -0.105362    0.391810
C     -4.311627    1.058320    0.667087
C     -2.929465    1.049625    0.509703
N     -2.239035    -0.036740    0.100284
C     -2.944314    -1.162391    -0.152225
C     -4.327058    -1.237665    -0.023920
H     -6.109293    -0.129242    0.496696
H     -4.808948    1.964411    0.996703
H     -2.341086    1.936717    0.706729
H     -2.367222    -2.021292    -0.472784
H     -4.838895    -2.168157    -0.246761
C     -0.045894    -0.059200    -5.264148
C     1.159239    0.045276    -4.568014
C     1.130653    0.071604    -3.176953
N     -0.010940    -0.017876    -2.459535
C     -1.169474    -0.126591    -3.145693
C     -1.232942    -0.142010    -4.535464
H     -0.060002    -0.074251    -6.349494
H     2.108530    0.108732    -5.090049
H     2.044992    0.162138    -2.601655
H     -2.069644    -0.197675    -2.546774
H     -2.195395    -0.220899    -5.030596
