23

Fe     -0.034395    0.030722    0.042743
P     -0.444488    2.679710    0.431325
H     -1.487190    3.085977    1.290832
H     0.615650    3.420339    0.994960
H     -0.732874    3.498732    -0.680822
P     2.595635    0.453313    -0.427966
H     3.096715    1.759519    -0.245639
H     3.533223    -0.261913    0.346276
H     3.110688    0.188913    -1.714888
P     0.365487    -2.597308    -0.450445
H     1.521517    -3.212122    0.075411
H     -0.610082    -3.492242    0.036421
H     0.450539    -3.049672    -1.784221
P     -2.697090    -0.362058    0.342554
H     -3.206361    -1.655590    0.102707
H     -3.267664    -0.122097    1.610391
H     -3.590135    0.385538    -0.454417
P     0.375598    -0.346152    2.655549
H     1.692338    -0.285317    3.159517
H     -0.241414    0.551679    3.553164
H     -0.031502    -1.560168    3.248990
C     -0.412413    0.364453    -2.203744
O     -0.605252    0.532077    -3.303330
