21

Fe     -0.000122    0.000402    0.000532
N     -0.233345    2.195394    0.380996
H     -1.212792    2.430846    0.563233
H     0.279394    2.555440    1.191335
H     0.037295    2.800665    -0.399635
N     2.208453    0.313151    -0.301610
H     2.466832    1.302974    -0.334636
H     2.796957    -0.087358    0.434473
H     2.567009    -0.077374    -1.177647
N     0.235227    -2.196210    -0.371446
H     1.217987    -2.434649    -0.530297
H     -0.055719    -2.799939    0.403072
H     -0.259264    -2.555730    -1.193295
N     -2.210065    -0.313054    0.291758
H     -2.473959    -1.301990    0.290045
H     -2.565978    0.048197    1.181310
H     -2.796660    0.116412    -0.429365
C     0.359629    -0.377291    2.374101
O     0.527406    -0.560401    3.474344
C     -0.360276    0.379138    -2.373373
O     -0.528072    0.561441    -3.473748
