32

Fe     0.006830    0.033987    0.016985
N     -0.309559    1.968768    0.292162
C     -0.483455    3.107204    0.407903
C     -0.699657    4.541875    0.544049
H     -0.888326    4.796858    1.591955
H     0.185327    5.085787    0.197794
H     -1.561641    4.847262    -0.058113
N     1.946248    0.325755    0.294101
C     3.077616    0.518083    0.447391
C     4.502206    0.760860    0.636290
H     4.787696    1.701093    0.153059
H     4.732750    0.825346    1.704798
H     5.082723    -0.056571    0.196254
N     0.318414    -1.903588    -0.260800
C     0.490137    -3.038839    -0.411291
C     0.704409    -4.467727    -0.605568
H     1.630317    -4.635497    -1.165353
H     0.779817    -4.970097    0.364450
H     -0.132932    -4.898520    -1.164279
N     -1.932731    -0.246469    -0.266663
C     -3.069595    -0.401878    -0.423131
C     -4.500201    -0.594538    -0.625753
H     -4.687787    -0.962462    -1.639933
H     -4.885929    -1.324283    0.093704
H     -5.028228    0.354787    -0.488779
N     -0.209887    -0.274165    2.006147
H     -1.195157    -0.327271    2.267767
H     0.206742    0.480260    2.553291
H     0.228929    -1.144746    2.309321
S     0.348030    0.492083    -2.360369
H     -0.685723    -0.141155    -2.954118
H     1.242603    -0.452215    -2.720647
