37

Fe     0.000266    0.001205    -0.000424
C     0.001166    1.946287    -0.000384
N     0.003304    3.108222    -0.000609
C     0.006995    4.538390    -0.001041
H     0.843834    4.895859    -0.605865
H     0.115008    4.897037    1.025407
H     -0.934032    4.901341    -0.421304
C     1.945343    0.000332    -0.000200
N     3.107287    -0.001530    0.000225
C     4.537457    -0.004697    0.000821
H     4.895707    -0.840867    -0.604466
H     4.895412    -0.113480    1.027426
H     4.900385    0.936878    -0.418232
C     -0.000156    -1.943885    -0.000874
N     -0.001225    -3.105827    -0.001326
C     -0.003293    -4.536000    -0.001949
H     -0.839546    -4.894368    -0.607050
H     -0.111160    -4.894937    1.024411
H     0.938334    -4.897812    -0.421842
C     -1.944807    0.000424    0.000094
N     -3.106734    -0.001902    0.001528
C     -4.536843    -0.005618    0.003689
H     -4.899695    0.983315    0.293822
H     -4.893510    -0.753587    0.715900
H     -4.896623    -0.250735    -0.998519
C     -0.001747    0.001633    3.124837
N     -0.000257    0.001234    1.969048
C     -0.004028    0.001787    4.582512
H     0.973965    0.318967    4.958425
H     -0.219312    -1.004428    4.956254
H     -0.768918    0.690538    4.955435
C     0.000831    0.003202    -3.125619
N     0.000352    0.001863    -1.969833
C     0.001506    0.005132    -4.583257
H     1.020450    0.149471    -4.956695
H     -0.632050    0.816152    -4.956590
H     -0.383135    -0.948391    -4.959156
