18

Fe     -0.000062    0.000095    0.037308
C     -0.000310    2.345482    0.035233
O     -0.000675    3.471604    0.007262
C     2.350036    -0.000177    0.064439
O     3.473317    -0.001025    -0.019676
C     0.000499    -2.345388    0.034973
O     0.000874    -3.471592    0.007274
C     -2.350149    0.000245    0.064267
O     -3.473309    0.001100    -0.019815
O     -0.000038    -0.000024    2.157783
H     0.778047    0.032088    2.747560
H     -0.778115    -0.032093    2.747575
C     -0.000450    0.000606    -2.139061
N     -0.000507    0.000597    -3.297211
C     -0.000063    -0.000107    -4.731287
H     -0.608164    -0.839505    -5.079099
H     1.031036    -0.108105    -5.078514
H     -0.421970    0.946198    -5.080328
