57

Fe     0.036633    -0.004429    -0.097036
O     0.042470    -0.006971    2.188874
H     0.818772    0.011968    2.774831
H     -0.739430    0.083127    2.760505
O     0.018969    -0.005000    -2.408274
C     1.136030    -0.183123    -3.222470
C     0.747878    -0.293724    -4.513067
C     -0.688501    -0.183457    -4.532925
C     -1.090142    -0.011345    -3.252922
H     2.080222    -0.195924    -2.703442
H     1.398931    -0.434410    -5.364728
H     -2.041070    0.114073    -2.761312
H     -1.330417    -0.227123    -5.402178
C     0.029386    5.046088    -0.194993
C     -0.031734    4.345063    1.010843
C     -0.019681    2.955388    0.979412
N     0.055204    2.245461    -0.167585
C     0.115708    2.932871    -1.331056
C     0.102051    4.322517    -1.386516
H     0.022066    6.132116    -0.205756
H     -0.086439    4.862553    1.962944
H     -0.062968    2.366560    1.887730
H     0.175828    2.338472    -2.233931
H     0.147792    4.822482    -2.348216
C     5.099517    -0.061811    0.364947
C     4.359347    -1.242225    0.434483
C     2.978640    -1.180635    0.279410
N     2.305661    -0.026136    0.073730
C     3.036151    1.109519    0.005852
C     4.420161    1.135484    0.140234
H     6.178970    -0.075490    0.480974
H     4.838308    -2.200917    0.604146
H     2.376634    -2.079618    0.310799
H     2.476474    2.019915    -0.164742
H     4.949480    2.079738    0.068447
C     -0.224077    -5.034901    -0.165071
C     -0.057117    -4.340801    1.035490
C     0.006832    -2.953643    1.002345
N     -0.083197    -2.235807    -0.142756
C     -0.242529    -2.917370    -1.297678
C     -0.319204    -4.305991    -1.349799
H     -0.279459    -6.119207    -0.175321
H     0.021994    -4.861442    1.984248
H     0.129082    -2.370280    1.907312
H     -0.308949    -2.325409    -2.200899
H     -0.450082    -4.800523    -2.306328
C     -5.003055    0.220959    0.551557
C     -4.281884    -0.905870    0.945704
C     -2.908731    -0.936193    0.725595
N     -2.228114    0.078071    0.148342
C     -2.938943    1.163266    -0.229256
C     -4.314123    1.273225    -0.051684
H     -6.075479    0.277054    0.710450
H     -4.770464    -1.754124    1.413582
H     -2.325544    -1.804510    1.008417
H     -2.374901    1.966808    -0.687878
H     -4.829642    2.169172    -0.380834
