49

Fe     0.025926    -0.065269    -0.221226
C     0.805472    4.690895    -0.853220
C     1.451605    3.757050    -1.667575
C     1.203264    2.406659    -1.452223
N     0.383503    1.950432    -0.486854
C     -0.219784    2.848607    0.319223
C     -0.038572    4.225367    0.147853
H     0.963242    5.756599    -0.999894
H     2.133790    4.061010    -2.455121
H     1.682785    1.651484    -2.066929
H     -0.750229    2.415903    1.167920
H     -0.556471    4.912252    0.810473
C     4.740684    -0.670448    0.580448
C     3.941461    0.142183    1.380871
C     2.582051    0.282730    1.094369
N     2.022402    -0.344569    0.034290
C     2.794408    -1.131900    -0.737148
C     4.151755    -1.327186    -0.500133
H     5.799810    -0.793261    0.792259
H     4.354979    0.667963    2.236094
H     1.903425    0.900780    1.702020
H     2.300142    -1.621829    -1.569988
H     4.724271    -1.979506    -1.152023
C     -0.817470    -4.783787    0.764736
C     -0.110842    -3.962124    1.639658
C     0.100214    -2.626182    1.303033
N     -0.345910    -2.094462    0.148224
C     -1.035922    -2.889991    -0.689490
C     -1.295598    -4.230735    -0.423267
H     -0.995414    -5.829306    1.001688
H     0.275113    -4.340959    2.580967
H     0.591748    -1.916003    1.961412
H     -1.391452    -2.431436    -1.606149
H     -1.861793    -4.820578    -1.137204
C     -4.785617    0.853010    0.104020
C     -4.168651    0.911335    -1.146327
C     -2.808946    0.631746    -1.233260
N     -2.056815    0.304938    -0.166857
C     -2.651450    0.255426    1.041721
C     -4.009889    0.518674    1.211448
H     -5.845796    1.067934    0.209451
H     -4.724270    1.169082    -2.042609
H     -2.292491    0.670507    -2.186630
H     -1.959741    0.008520    1.843822
H     -4.441856    0.468262    2.206202
O     -0.019626    -0.010267    1.676146
O     0.137720    1.232468    2.325233
C     0.049704    -0.333673    -2.011446
O     0.065112    -0.558364    -3.153024
