31

Fe     0.000151    -0.000067    0.000989
C     0.397456    1.858668    -0.147363
O     0.643465    2.950061    -0.313503
C     1.870399    -0.334742    0.143098
O     2.973242    -0.525947    0.303119
C     -0.396305    -1.858424    -0.146528
O     -0.643734    -2.949460    -0.312945
C     -1.869873    0.334233    0.142494
O     -2.972557    0.526006    0.302989
C     -0.000514    0.000566    4.876848
C     -0.232909    1.176338    4.162963
C     -0.227671    1.138815    2.774942
N     -0.000424    0.000152    2.072344
C     0.227121    -1.138235    2.775348
C     0.232793    -1.175294    4.163390
H     -0.000966    0.000589    5.962116
H     -0.418634    2.118751    4.667447
H     -0.418051    2.045370    2.213180
H     0.417286    -2.044966    2.213773
H     0.420271    -2.117270    4.668116
C     -0.000032    -0.000743    -4.875694
C     0.900113    -0.792405    -4.161208
C     0.869621    -0.769718    -2.772886
N     -0.000285    -0.000495    -2.071781
C     -0.869826    0.768921    -2.773150
C     -0.899753    0.791646    -4.161477
H     -0.000257    -0.001250    -5.961456
H     1.622686    -1.426132    -4.664526
H     1.558373    -1.387159    -2.207514
H     -1.558866    1.386265    -2.208042
H     -1.621252    1.426316    -4.665082
