19

Fe     0.109758    -0.086869    -0.040157
O     0.417270    2.018441    0.258631
N     1.647689    2.291737    0.382290
H     1.954155    3.262720    0.538266
N     2.543432    1.359520    0.323390
H     3.534916    1.614179    0.435462
O     2.211205    0.151186    0.124403
O     -0.047357    -2.189759    0.197468
N     -0.246973    -2.522786    1.405513
H     -0.354967    -3.514772    1.659998
N     -0.311704    -1.627480    2.337760
H     -0.468124    -1.935066    3.308323
O     -0.193347    -0.396413    2.065280
O     -1.995604    0.213972    -0.349282
N     -2.268418    0.332143    -1.580370
H     -3.238977    0.489298    -1.887590
N     -1.336642    0.266169    -2.476076
H     -1.591570    0.373976    -3.467969
O     -0.128646    0.065588    -2.143670
