22

Fe     -0.028686    -0.037906    0.251315
P     0.269391    2.182046    -0.350431
H     0.489917    3.209414    0.599239
H     1.330995    2.475574    -1.229965
H     -0.780489    2.780224    -1.075129
P     2.196446    -0.454599    -0.247059
H     3.224326    -0.399901    0.725928
H     2.497550    -1.710709    -0.810092
H     2.784336    0.366376    -1.229871
P     -0.388722    -2.315423    0.475873
H     0.467523    -3.173130    -0.243240
H     -0.345805    -2.965316    1.733073
H     -1.623938    -2.813574    0.015182
P     -2.317427    0.312834    0.341306
H     -3.135481    -0.742831    -0.107170
H     -2.999000    0.622063    1.543738
H     -2.833293    1.344126    -0.468990
P     0.313467    0.347067    2.481047
H     1.605053    0.688672    2.942567
H     -0.399400    1.394287    3.107632
H     0.032721    -0.670063    3.421388
Cl     -0.387213    -0.413302    -2.030464
