27

Fe     0.001669    0.003762    -0.004493
C     0.311852    1.852930    0.268200
N     0.501336    2.992503    0.441707
C     0.734416    4.371120    0.666770
H     1.446538    4.753164    -0.070972
H     1.141525    4.518735    1.671686
H     -0.203831    4.926604    0.574819
C     1.850407    -0.265786    -0.321795
N     2.990498    -0.433606    -0.513212
C     4.373876    -0.642485    -0.732795
H     4.516685    -1.406899    -1.502581
H     4.850745    -0.972021    0.195318
H     4.842280    0.288455    -1.066407
C     -0.308733    -1.846494    -0.271540
N     -0.499437    -2.987154    -0.436314
C     -0.732695    -4.370202    -0.632020
H     -1.728424    -4.522145    -1.059583
H     -0.667821    -4.896191    0.325285
H     0.014159    -4.779742    -1.318918
C     -1.847507    0.271818    0.310115
N     -2.988508    0.437358    0.498183
C     -4.374551    0.635676    0.710535
H     -4.543470    1.609093    1.180931
H     -4.765947    -0.148065    1.366203
H     -4.904085    0.603636    -0.246519
Cl     0.364776    -0.382138    2.332553
Cl     -0.361471    0.388437    -2.341099
