19

Fe     -0.000019    -0.000173    -0.000007
C     -0.000078    1.924394    0.000051
N     -0.000115    3.083638    0.000090
H     -0.000145    4.091496    0.000122
C     1.924548    -0.000120    0.000009
N     3.083792    -0.000091    0.000020
H     4.091651    -0.000073    0.000031
C     0.000041    -1.924739    -0.000063
N     0.000074    -3.083983    -0.000100
H     0.000106    -4.091842    -0.000130
C     -1.924585    -0.000225    -0.000021
N     -3.083829    -0.000250    -0.000031
H     -4.091688    -0.000270    -0.000039
C     -0.000019    -0.000223    1.924560
N     0.000002    -0.000259    3.083804
H     -0.000012    -0.000264    4.091662
C     -0.000015    -0.000119    -1.924574
N     -0.000016    -0.000087    -3.083818
H     -0.000017    -0.000070    -4.091677
