23

Fe     -0.118865    -0.217935    -0.124310
P     0.252599    2.144750    -0.351792
H     -0.534131    3.004688    0.441986
H     0.020658    2.725821    -1.617235
H     1.527889    2.684491    -0.084666
P     2.238886    -0.628874    -0.409502
H     2.616785    -1.890322    -0.910591
H     3.108713    -0.542072    0.698917
H     2.929614    0.201508    -1.314911
P     -0.460883    -2.583683    0.274421
H     -1.591029    -2.983851    1.015683
H     0.544108    -3.241355    1.011057
H     -0.567225    -3.462520    -0.824547
P     -2.486672    0.147635    -0.017436
H     -3.029945    1.298200    -0.626141
H     -3.087618    0.255870    1.254913
H     -3.328869    -0.830410    -0.585941
O     0.114898    -0.142335    1.985507
H     -0.540479    0.258097    2.582929
H     0.983682    0.022692    2.391111
O     -0.175402    -0.569480    -2.215804
H     -0.116393    0.175838    -2.838675
H     -0.802036    -1.199147    -2.612437
