19

Fe     0.000061    -0.000156    0.000205
N     0.000164    1.971100    0.000112
C     0.000223    3.121447    0.000073
H     0.000271    4.198666    0.000033
N     1.971316    -0.000253    0.000146
C     3.121662    -0.000314    0.000167
H     4.198882    -0.000358    0.000166
N     -0.000047    -1.971411    0.000285
C     -0.000050    -3.121757    0.000385
H     -0.000069    -4.198978    0.000452
N     -1.971196    -0.000056    0.000251
C     -3.121542    -0.000010    0.000330
H     -4.198761    0.000027    0.000379
N     0.000110    -0.000070    1.971458
C     0.000132    -0.000021    3.121805
H     0.000151    0.000022    4.199025
N     0.000009    -0.000239    -1.971054
C     -0.000021    -0.000288    -3.121400
H     -0.000045    -0.000329    -4.198620
