13
03/24/2023 16:57, XYZ structure generated by mol3D Class, molSimplify
Fe     -0.000093    -0.000059    -0.000092
C     -0.000516    2.360529    -0.000223
O     -0.008715    3.484555    -0.007818
C     2.314758    0.000557    0.002349
O     3.439375    -0.007687    0.004772
C     0.000416    -2.360685    0.000124
O     0.008785    -3.484707    0.007884
C     -2.314892    -0.000562    -0.002239
O     -3.439507    0.007881    -0.004493
C     0.002456    0.000302    2.314511
O     0.004939    -0.007615    3.439131
C     -0.002347    -0.000308    -2.314643
O     -0.004661    0.007802    -3.439263
