59

Fe     0.035234    0.004680    0.002090
O     0.043152    2.100656    -0.014283
C     -1.064434    2.946445    0.117249
C     -0.659495    4.232715    0.038083
C     0.767189    4.221419    -0.152475
C     1.159065    2.929086    -0.181635
H     -2.009346    2.451516    0.258812
H     -1.297270    5.102947    0.107533
H     2.099594    2.421591    -0.305562
H     1.414223    5.081265    -0.256905
O     2.176132    0.012717    0.062834
C     2.969096    -0.169495    1.203484
C     4.275271    -0.122681    0.862922
C     4.337675    0.107388    -0.556455
C     3.066878    0.182550    -1.006749
H     2.430918    -0.316673    2.122414
H     5.111095    -0.236111    1.539662
H     2.613799    0.346872    -1.968067
H     5.229608    0.201525    -1.160538
O     0.040006    -2.089174    0.016330
C     1.139562    -2.919992    0.262458
C     0.741410    -4.210817    0.234927
C     -0.672433    -4.218017    -0.035765
C     -1.063641    -2.931274    -0.162737
H     2.074812    -2.416211    0.434592
H     1.375191    -5.073124    0.390369
H     -1.996701    -2.436082    -0.366981
H     -1.312493    -5.085355    -0.123459
O     -2.124016    -0.000563    -0.072741
C     -3.032581    0.271441    0.959359
C     -4.296763    0.159056    0.496724
C     -4.211113    -0.205825    -0.892536
C     -2.899433    -0.287240    -1.203663
H     -2.598794    0.515498    1.912768
H     -5.199515    0.314152    1.072059
H     -2.349121    -0.524456    -2.095835
H     -5.035613    -0.384071    -1.569325
C     -0.308803    0.062555    4.869709
C     -0.594340    -1.095939    4.147524
C     -0.471857    -1.078848    2.762393
N     -0.081760    0.018386    2.069522
C     0.205263    1.135240    2.782657
C     0.101812    1.196006    4.167543
H     -0.400857    0.082668    5.951244
H     -0.910897    -2.007456    4.643500
H     -0.704072    -1.961179    2.182572
H     0.534884    1.997122    2.219321
H     0.341201    2.122122    4.679177
C     0.074690    -0.063622    -4.870874
C     -0.310412    1.080946    -4.172754
C     -0.281919    1.068018    -2.782809
N     0.105704    -0.012501    -2.063306
C     0.488787    -1.115415    -2.751099
C     0.485635    -1.178686    -4.139961
H     0.056241    -0.085078    -5.956208
H     -0.633927    1.977442    -4.691046
H     -0.591405    1.936520    -2.218001
H     0.816584    -1.962648    -2.164646
H     0.799137    -2.092288    -4.633479
