46

Fe     -0.064240    0.077589    -0.189387
O     -0.394152    0.190736    1.829522
H     0.143871    0.794829    2.369485
H     -1.328689    0.370860    2.047590
C     0.196583    -0.017820    -2.114729
N     0.331009    -0.039095    -3.267409
C     0.498701    -0.055137    -4.690603
H     -0.233159    -0.738984    -5.126771
H     1.511587    -0.390872    -4.925545
H     0.341204    0.954855    -5.077108
O     -0.084012    2.143832    -0.255825
C     -0.892488    2.947937    -1.066646
C     -0.686613    4.246318    -0.757313
C     0.299921    4.286725    0.291830
C     0.644166    3.010646    0.569405
H     -1.524949    2.423667    -1.764246
H     -1.171825    5.093691    -1.221932
H     1.371427    2.547085    1.216068
H     0.701974    5.170604    0.768477
O     1.941233    0.094920    0.210236
C     2.602017    -0.770441    1.095399
C     3.935065    -0.617893    0.951524
C     4.149896    0.376083    -0.070019
C     2.936088    0.781729    -0.498131
H     1.964896    -1.389489    1.705888
H     4.694883    -1.148480    1.508534
H     2.584299    1.507012    -1.212821
H     5.102494    0.740499    -0.429996
O     -0.005172    -1.979198    -0.025810
C     -0.554068    -2.735762    1.016651
C     -0.147066    -4.017491    0.902278
C     0.708253    -4.095469    -0.253892
C     0.779922    -2.857173    -0.784979
H     -1.183631    -2.202024    1.705894
H     -0.421680    -4.829775    1.560872
H     1.297466    -2.422607    -1.622921
H     1.205281    -4.977521    -0.633476
O     -2.115269    0.004101    -0.401140
C     -2.817146    -1.119190    -0.847772
C     -4.101207    -1.043909    -0.437625
C     -4.241864    0.180213    0.307115
C     -3.034705    0.789192    0.318332
H     -2.240554    -1.835195    -1.408737
H     -4.876756    -1.768475    -0.644105
H     -2.675666    1.755711    0.635159
H     -5.148000    0.562309    0.758131
