22

Fe     -0.081675    0.151401    -0.070491
O     0.326821    2.134790    -0.230531
H     0.785411    2.450593    -1.030070
H     -0.426133    2.742334    -0.108569
O     1.862123    -0.272174    0.355713
H     2.472326    -0.456478    -0.380802
H     2.339281    0.340022    0.944843
O     -0.454760    -1.768133    0.438048
H     0.319482    -2.358489    0.480103
H     -1.160357    -2.244111    -0.035453
O     -2.073717    0.383525    -0.311984
H     -2.578190    0.680460    0.465783
H     -2.537075    0.675067    -1.114480
O     -0.529303    0.491028    1.887425
H     -0.068369    1.122624    2.467810
H     -0.624347    -0.343358    2.384111
C     0.173362    -0.207551    -1.968347
N     0.304562    -0.433508    -3.100765
C     0.459069    -0.719106    -4.499287
H     -0.125148    -1.609156    -4.745821
H     1.516359    -0.895567    -4.711302
H     0.100277    0.135790    -5.077254
