19

Fe     0.000131    0.000024    0.000425
N     0.000019    2.197654    0.000495
C     -0.000097    3.349298    0.000038
H     -0.000202    4.427202    -0.000391
N     2.203186    -0.000018    0.000379
C     3.355240    0.000050    0.000563
H     4.432583    0.000109    0.000675
N     0.000217    -2.197627    0.000029
C     0.000454    -3.349271    0.000456
H     0.000638    -4.427175    0.000808
N     -2.202927    0.000079    0.000343
C     -3.354981    0.000120    0.000599
H     -4.432323    0.000148    0.000781
N     0.000061    0.000845    2.203441
C     0.000219    0.000665    3.355495
H     0.000333    0.000471    4.432838
N     0.000163    -0.000962    -2.202663
C     0.000136    -0.001051    -3.354717
H     0.000105    -0.001079    -4.432059
