31

Fe     0.000439    -0.000171    0.000294
S     -0.476750    2.310279    -0.253632
N     1.022363    3.221320    0.351636
H     0.874950    3.554789    1.309228
H     1.820481    2.554438    0.352357
H     1.233892    4.029237    -0.240978
S     2.310894    0.253703    0.476632
N     3.220783    -0.352029    -1.022975
H     3.554877    -1.309363    -0.875176
H     2.553137    -0.353797    -1.820431
H     4.028287    0.240749    -1.235609
S     0.477905    -2.310529    0.253525
N     -1.022171    -3.221139    -0.350156
H     -1.235928    -4.026572    0.245038
H     -1.819017    -2.552774    -0.354121
H     -0.874180    -3.558324    -1.306350
S     -2.309825    -0.253126    -0.477879
N     -3.221565    0.351284    1.021299
H     -2.554620    0.353052    1.819323
H     -3.556340    1.308385    0.873664
H     -4.028695    -0.242305    1.233087
S     -0.253849    0.477244    2.310204
N     0.352209    -1.021563    3.221373
H     -0.241124    -1.234371    4.028416
H     0.354910    -1.819235    2.553966
H     1.309152    -0.873039    3.556211
S     0.252714    -0.477503    -2.310611
N     -0.351857    1.022222    -3.221031
H     -0.353145    1.819819    -2.553564
H     0.241280    1.234311    -4.028414
H     -1.309214    0.875011    -3.555324
