21

Fe     0.020395    -0.215222    -0.033059
O     0.337255    1.896278    0.019887
H     -0.261866    2.582390    0.363324
H     1.243004    2.250781    0.066525
O     2.154224    -0.400485    -0.336769
H     2.599583    -0.466763    -1.199057
H     2.807314    -0.659828    0.335751
O     -0.305409    -2.325977    -0.096120
H     -1.206598    -2.682808    -0.189372
H     0.313441    -3.013183    -0.399835
O     -2.110322    -0.016976    0.269152
H     -2.556112    0.035027    1.132250
H     -2.759121    0.266443    -0.397789
P     0.367464    -0.543849    2.660426
H     -0.740687    -1.024855    3.391393
H     0.745163    0.515165    3.512998
H     1.310867    -1.508088    3.076495
P     -0.316710    0.105180    -2.727144
H     -1.365849    0.948858    -3.151935
H     -0.545771    -0.981930    -3.596933
H     0.735602    0.730048    -3.431221
