30

Fe     0.006791    -0.014727    0.009739
N     0.326083    1.910358    -0.254656
C     0.536707    3.038882    -0.393072
C     0.803091    4.460194    -0.564208
H     1.728402    4.729954    -0.044568
H     0.908585    4.693803    -1.628903
H     -0.022854    5.047082    -0.149056
N     1.929101    -0.283228    0.344990
C     3.063649    -0.413282    0.528206
C     4.492104    -0.575805    0.759790
H     5.055388    0.028969    0.041248
H     4.744187    -0.252269    1.775162
H     4.772612    -1.627161    0.637691
N     -0.312468    -1.940876    0.329339
C     -0.483504    -3.078207    0.459282
C     -0.696933    -4.509789    0.620400
H     -0.026940    -5.061110    -0.048007
H     -0.492046    -4.805026    1.654870
H     -1.733663    -4.762418    0.374584
N     -1.928566    0.276509    -0.274164
C     -3.050171    0.449838    -0.501879
C     -4.459991    0.668694    -0.793453
H     -4.860288    1.452863    -0.142185
H     -4.576326    0.978355    -1.837698
H     -5.023730    -0.255702    -0.630067
O     -0.222232    0.382123    1.993078
H     -1.118487    0.689321    2.217730
H     -0.058382    -0.388093    2.565667
C     0.267300    -0.326116    -1.814075
O     0.432587    -0.513272    -2.919337
