15

Fe     -0.065057    -0.071653    0.038764
C     -0.440573    2.182606    0.388780
O     -0.637133    3.231763    0.757818
C     2.194059    0.268914    0.404539
O     3.252075    0.410261    0.773543
C     0.319800    -2.327531    -0.308161
O     0.481963    -3.444962    -0.282049
C     -2.324296    -0.408675    -0.327655
O     -3.435546    -0.609971    -0.309604
N     -0.503691    -0.610191    3.131502
C     -0.341096    -0.412567    1.988258
P     0.306681    0.369323    -2.648072
H     0.100640    1.668186    -3.159746
H     -0.485738    -0.357179    -3.562275
H     1.577910    0.111649    -3.204083
