43

Fe     0.007742    0.008801    -0.040262
C     0.037895    2.236867    -0.089353
N     0.096771    3.395349    -0.157859
C     0.183820    4.820782    -0.249446
H     0.965632    5.083075    -0.966328
H     0.431573    5.225466    0.734765
H     -0.776659    5.219761    -0.584106
C     2.232681    0.047190    0.060062
N     3.387387    0.107698    0.174530
C     4.806742    0.191934    0.336067
H     5.277496    -0.637333    -0.197160
H     5.044956    0.131750    1.401126
H     5.159025    1.142971    -0.070429
C     -0.024338    -2.220220    -0.136965
N     -0.092392    -3.378777    -0.193289
C     -0.188325    -4.804628    -0.265577
H     -0.969293    -5.074289    -0.980549
H     -0.440573    -5.193590    0.723812
H     0.771383    -5.212483    -0.591303
C     -2.219118    -0.030561    0.091591
N     -3.375177    -0.101305    0.184432
C     -4.796551    -0.202248    0.316693
H     -5.179058    -0.880251    -0.450005
H     -5.241021    0.788025    0.191968
H     -5.032518    -0.594218    1.309231
O     0.018073    -0.001068    2.234349
C     -0.704663    0.836032    3.079995
C     -0.451007    0.511676    4.367305
C     0.479470    -0.588605    4.349252
C     0.739029    -0.866302    3.052423
H     -1.314883    1.579524    2.592674
H     -0.869588    0.994763    5.239879
H     1.353258    -1.589494    2.540991
H     0.896220    -1.100420    5.205740
O     0.005047    0.026826    -2.295413
C     -0.858722    0.749340    -3.114975
C     -0.586840    0.479524    -4.410438
C     0.505838    -0.458889    -4.426763
C     0.834463    -0.707044    -3.140081
H     -1.573470    1.373908    -2.604912
H     -1.095549    0.893867    -5.269430
H     1.575792    -1.318583    -2.652121
H     0.979585    -0.884932    -5.300126
