21

Fe     0.137977    0.134289    -0.028504
C     0.460730    0.395451    1.904746
O     0.652204    0.550253    3.006798
O     0.555086    2.109241    -0.259004
H     0.655098    2.471895    -1.157552
H     -0.017913    2.735553    0.222538
O     2.116505    -0.282377    -0.210501
H     2.452415    -0.633386    -1.054950
H     2.719490    0.446826    0.030586
O     -0.279217    -1.816132    0.373598
H     0.413300    -2.316600    0.846083
H     -0.552183    -2.385446    -0.368862
O     -1.813359    0.553040    0.340965
H     -2.270198    -0.132064    0.865437
H     -2.393326    0.734224    -0.420691
C     -0.174041    -0.127418    -1.971546
N     -0.341224    -0.291571    -3.109058
C     -0.543290    -0.498200    -4.517408
H     -1.243369    -1.325965    -4.655342
H     0.417780    -0.738027    -4.979273
H     -0.952465    0.416415    -4.953705
