15

Fe     0.105263    0.077264    0.017478
C     0.383904    1.947144    -0.353722
O     0.547762    3.040555    -0.579351
C     1.992336    -0.230402    -0.215596
O     3.098362    -0.410636    -0.347515
C     -0.161300    -1.782798    0.350185
O     -0.320797    -2.885361    0.537471
C     -1.756708    0.403605    0.279863
O     -2.855454    0.603489    0.450157
S     0.549084    0.480457    2.404552
H     -0.372540    -0.295069    3.022598
H     -0.119962    1.632445    2.645579
S     -0.252853    -0.263743    -2.393122
H     -1.388176    -1.000183    -2.429258
H     0.551091    -1.316751    -2.671865
