25

Fe     -0.018230    0.054313    -0.031309
S     0.337294    2.424185    -0.514138
H     -0.878419    3.000354    -0.385995
H     0.797705    2.915742    0.655452
S     2.391747    -0.119743    -0.351237
H     2.783925    -1.228687    0.311230
H     2.532882    -0.672912    -1.574031
S     -0.401949    -2.314780    0.341494
H     0.392237    -2.648464    1.381282
H     0.352822    -2.958827    -0.574448
S     -2.391207    0.461691    0.308198
H     -2.667171    -0.154418    1.477418
H     -3.000374    -0.481122    -0.442472
C     0.493674    0.533720    3.019943
N     0.298654    0.341389    1.892684
C     0.739002    0.779649    4.434592
H     -0.174847    1.147499    4.913799
H     1.529552    1.529195    4.550426
H     1.052172    -0.147113    4.927525
C     -0.534617    -0.324270    -3.094640
N     -0.340880    -0.216879    -1.956139
C     -0.777621    -0.454955    -4.524636
H     0.172656    -0.425436    -5.068746
H     -1.410470    0.369983    -4.869944
H     -1.281657    -1.404621    -4.734198
