27

Fe     -0.137352    -0.000620    -0.031457
O     0.264557    2.111182    0.109291
H     1.137668    2.451281    0.368757
H     -0.375316    2.840708    0.166322
O     2.024606    -0.158635    0.341362
H     2.657491    -0.337527    -0.374376
H     2.428997    -0.477845    1.165502
O     -0.476987    -2.139525    0.103631
H     0.226113    -2.805651    0.189319
H     -1.323417    -2.616252    0.133202
O     -2.252940    0.512640    -0.316427
H     -3.042073    0.264224    0.194256
H     -2.558935    0.693834    -1.221776
O     -0.351425    0.091606    2.125043
H     -0.405577    0.912938    2.643533
H     -0.702734    -0.616188    2.691740
C     0.368699    -0.069916    -4.965625
C     0.745880    1.049202    -4.221255
C     0.606839    1.016672    -2.839775
N     0.120112    -0.060256    -2.175325
C     -0.239348    -1.142131    -2.907691
C     -0.132933    -1.184896    -4.291579
H     0.462991    -0.073272    -6.047226
H     1.139411    1.939506    -4.700108
H     0.877972    1.870844    -2.231763
H     -0.621704    -1.991516    -2.354585
H     -0.438658    -2.077749    -4.826406
