12

Fe     0.047313    -0.050949    -0.005720
C     0.406444    2.192366    -0.269828
O     0.599293    3.255396    -0.598208
C     2.267961    -0.367656    0.436929
O     3.380347    -0.560392    0.460427
C     -0.338990    -2.271801    0.373611
O     -0.504156    -3.388812    0.370480
C     -2.191511    0.292869    -0.327868
O     -3.255917    0.436162    -0.676346
C     -0.312376    0.341019    2.361922
O     -0.481079    0.529049    3.461087
Cl     0.382673    -0.407256    -2.177000
