19

Fe     0.078716    0.076442    0.059597
O     0.214244    2.280922    0.240194
H     -0.098089    2.768578    1.031472
S     1.738456    2.908541    -0.333648
S     2.939813    1.580756    0.598229
O     2.276375    0.134435    -0.120460
H     2.795952    -0.147957    -0.902363
O     0.105415    -2.049642    -0.291116
H     -0.541241    -2.593797    -0.787511
S     0.675569    -2.864227    1.162216
S     -0.413264    -1.861838    2.516985
O     0.200559    -0.240401    2.239839
H     0.985996    -0.068640    2.801792
O     -2.026398    0.583216    0.430907
H     -2.659455    -0.002714    0.895885
S     -2.738237    1.223222    -1.045495
S     -1.961650    -0.078944    -2.361366
O     -0.252610    0.239909    -2.115961
H     0.040863    0.983374    -2.683562
