41

Fe     0.036423    -0.002187    0.006951
C     -0.161496    -0.200119    1.951249
O     -0.263291    -0.313081    3.070232
C     0.253286    0.190219    -1.932709
O     0.383122    0.294700    -3.049668
O     -0.008220    2.026174    0.214997
C     -0.989203    2.766327    0.898984
C     -0.805536    4.079445    0.652828
C     0.327827    4.202337    -0.229516
C     0.787663    2.959435    -0.479262
H     -1.705241    2.193288    1.464727
H     -1.402243    4.887224    1.055292
H     1.623807    2.553828    -1.025271
H     0.745575    5.120457    -0.620375
O     2.067050    0.027392    0.205759
C     2.818337    0.830146    1.083734
C     4.129933    0.573364    0.902795
C     4.240323    -0.426703    -0.129510
C     2.991337    -0.738034    -0.531432
H     2.255104    1.506222    1.706235
H     4.944472    1.039042    1.441279
H     2.569252    -1.436660    -1.235283
H     5.153690    -0.857639    -0.516945
O     0.068668    -2.038960    -0.158094
C     0.828165    -2.930322    0.624995
C     0.542936    -4.194998    0.253387
C     -0.428499    -4.129095    -0.809241
C     -0.696423    -2.827088    -1.037074
H     1.507013    -2.480289    1.331323
H     0.972125    -5.090929    0.681465
H     -1.359927    -2.291899    -1.696486
H     -0.867000    -4.966014    -1.335716
O     -1.994958    -0.033245    -0.209550
C     -2.885155    -0.886449    0.470947
C     -4.149475    -0.578602    0.117872
C     -4.085893    0.507604    -0.826941
C     -2.785302    0.816342    -1.006403
H     -2.436422    -1.639560    1.097668
H     -5.043395    -1.066438    0.482443
H     -2.255211    1.563131    -1.574698
H     -4.923711    0.991360    -1.311050
