151
03/24/2023 16:57, XYZ structure generated by mol3D Class, molSimplify
Fe     0.045121    -0.077657    -0.020079
C     0.349242    2.120631    -0.361831
N     0.491987    3.268426    -0.525712
C     0.654401    4.636348    -0.702311
C     0.165142    5.519805    0.269747
C     0.337633    6.884284    0.085572
C     0.986311    7.409586    -1.049785
C     1.152205    8.930374    -1.198888
C     -0.245606    9.595875    -1.198034
C     1.979630    9.466257    -0.004601
C     1.876594    9.315132    -2.502711
C     1.459830    6.493553    -2.003502
C     1.303463    5.118982    -1.842301
H     -0.336826    5.133591    1.151023
H     -0.041425    7.557340    0.847239
H     -0.854011    9.241292    -2.037485
H     -0.141066    10.682224    -1.291413
H     -0.794563    9.394914    -0.272362
H     2.975586    9.010439    0.023357
H     1.490894    9.271533    0.955755
H     2.106210    10.550483    -0.096142
H     2.886319    8.891902    -2.551042
H     1.977659    10.403581    -2.555551
H     1.321859    8.995442    -3.392308
H     1.963240    6.848579    -2.894356
H     1.676007    4.425958    -2.589835
C     2.232648    -0.401869    -0.350143
N     3.379631    -0.528528    -0.533785
C     4.743872    -0.661645    -0.754863
C     5.302556    -1.937109    -0.913844
C     6.667667    -2.050429    -1.137476
C     7.510764    -0.923193    -1.206169
C     9.015731    -1.106645    -1.459387
C     9.614658    -1.999248    -0.345029
C     9.214511    -1.792472    -2.833311
C     9.773993    0.234458    -1.467255
C     6.914925    0.337905    -1.039747
C     5.547870    0.480446    -0.817721
H     4.669813    -2.817361    -0.863934
H     7.086569    -3.043581    -1.260718
H     9.486227    -1.540714    0.641701
H     10.687509    -2.137940    -0.516688
H     9.154513    -2.992370    -0.319479
H     8.807697    -1.178723    -3.644735
H     8.730764    -2.773927    -2.876071
H     10.282837    -1.940336    -3.024998
H     9.424868    0.900158    -2.264726
H     10.838866    0.050550    -1.640571
H     9.685493    0.760097    -0.509770
H     7.520041    1.235089    -1.083010
H     5.105302    1.463424    -0.692140
C     -0.251203    -2.261747    0.342090
N     -0.392839    -3.402995    0.548515
C     -0.553590    -4.759334    0.795150
C     -1.838790    -5.282387    0.993636
C     -1.981519    -6.640486    1.240269
C     -0.874574    -7.510895    1.297688
C     -1.091051    -9.006329    1.578118
C     -1.764079    -9.167383    2.963209
C     -2.011285    -9.600223    0.483663
C     0.231056    -9.797576    1.583104
C     0.397118    -6.950584    1.092828
C     0.568663    -5.591729    0.843418
H     -2.703760    -4.628360    0.951588
H     -2.981874    -7.032099    1.391608
H     -1.131014    -8.761827    3.760269
H     -1.933038    -10.229005    3.173777
H     -2.734082    -8.661471    3.010839
H     -1.562610    -9.496046    -0.510418
H     -2.993842    -9.117489    0.463731
H     -2.172345    -10.667129    0.672275
H     0.744844    -9.743785    0.616567
H     0.022805    -10.853367    1.782295
H     0.916681    -9.447882    2.363214
H     1.279229    -7.578023    1.127151
H     1.559178    -5.176198    0.688952
C     -2.136052    0.286474    0.291013
N     -3.276323    0.495542    0.439082
C     -4.630139    0.753122    0.604411
C     -5.203778    1.869197    -0.020970
C     -6.559427    2.112002    0.148478
C     -7.377506    1.271899    0.930115
C     -8.874473    1.586297    1.078669
C     -9.037313    2.985037    1.722639
C     -9.533066    1.580542    -0.322793
C     -9.604366    0.557128    1.961926
C     -6.766932    0.165579    1.543741
C     -5.409268    -0.101925    1.389758
H     -4.589733    2.527140    -0.627580
H     -6.992129    2.978344    -0.340639
H     -8.583642    3.016549    2.719453
H     -10.101015    3.224438    1.827699
H     -8.579696    3.774269    1.117105
H     -9.429214    0.601583    -0.803565
H     -9.097114    2.333229    -0.988142
H     -10.602273    1.801096    -0.232545
H     -9.550485    -0.454877    1.544609
H     -10.663507    0.823868    2.031636
H     -9.206194    0.534633    2.982801
H     -7.354110    -0.507784    2.156074
H     -4.954849    -0.962654    1.869984
C     0.410357    0.244044    2.189004
N     0.586503    0.392576    3.333362
C     0.792907    0.572576    4.694158
C     2.095429    0.752329    5.180022
C     2.283914    0.936447    6.542329
C     1.207459    0.948569    7.451918
C     1.475241    1.159419    8.950322
C     2.403195    0.030767    9.462730
C     2.167237    2.529672    9.152980
C     0.179411    1.139687    9.784166
C     -0.082342    0.762374    6.927277
C     -0.300793    0.575506    5.565124
H     2.937170    0.746380    4.495099
H     3.296794    1.074488    6.905603
H     1.939317    -0.953210    9.332399
H     2.604798    0.171272    10.530172
H     3.367560    0.021399    8.944005
H     1.529467    3.350563    8.806730
H     3.120642    2.592708    8.618171
H     2.373495    2.687971    10.217008
H     -0.511345    1.937046    9.487616
H     0.423442    1.295145    10.839568
H     -0.342364    0.178957    9.708527
H     -0.941980    0.762275    7.586104
H     -1.304444    0.433809    5.177371
C     -0.342704    -0.396682    -2.225556
N     -0.568095    -0.566453    -3.358220
C     -0.852633    -0.771139    -4.701149
C     0.165078    -1.178534    -5.574592
C     -0.141290    -1.383174    -6.912788
C     -1.442265    -1.193764    -7.420046
C     -1.727639    -1.444860    -8.909687
C     -0.825972    -0.520220    -9.763923
C     -1.409879    -2.924035    -9.239683
C     -3.197015    -1.164964    -9.276822
C     -2.434274    -0.782695    -6.514472
C     -2.155593    -0.570795    -5.167153
H     1.173071    -1.330905    -5.202637
H     0.654199    -1.699275    -7.579209
H     -1.030234    0.535659    -9.554631
H     -1.015604    -0.697056    -10.828082
H     0.238803    -0.701467    -9.584174
H     -2.036422    -3.604557    -8.652518
H     -0.361988    -3.172005    -9.041443
H     -1.601906    -3.117703    -10.300540
H     -3.889215    -1.815272    -8.730017
H     -3.349511    -1.353182    -10.344214
H     -3.474438    -0.122041    -9.086409
H     -3.449600    -0.622172    -6.855469
H     -2.935722    -0.255557    -4.481749
