17

Fe     -0.000058    0.004083    -0.000444
C     0.343464    0.022030    1.945574
O     0.548683    0.046189    3.054574
C     -0.344005    0.022491    -1.946737
O     -0.547757    0.046468    -3.056140
O     0.000314    2.022704    -0.001142
H     0.730178    2.589505    -0.307408
H     -0.727370    2.588790    0.311473
O     2.006919    0.028506    -0.349200
H     2.447952    -0.120545    -1.204304
H     2.692891    0.021148    0.341541
O     -0.001076    -2.019722    -0.002839
H     0.769099    -2.591389    -0.168695
H     -0.768846    -2.591281    0.174365
O     -2.007360    0.029619    0.348511
H     -2.449586    -0.119717    1.202886
H     -2.693442    0.021121    -0.342014
