48

Fe     0.032552    0.004173    -0.114834
C     0.076247    -0.014873    1.788458
O     0.113116    -0.023770    2.919495
O     -0.029125    2.063800    -0.146243
C     0.315429    2.963184    0.883267
C     -0.080755    4.205323    0.538694
C     -0.708857    4.116931    -0.755674
C     -0.665157    2.826028    -1.142476
H     0.862217    2.549504    1.714637
H     0.064119    5.100267    1.128836
H     -0.999342    2.279350    -2.007239
H     -1.131635    4.933752    -1.324783
O     2.095659    0.052927    -0.080074
C     2.914499    -0.967151    0.440291
C     4.172257    -0.501866    0.576649
C     4.177110    0.871157    0.138505
C     2.921067    1.182246    -0.242210
H     2.427157    -1.912154    0.609192
H     5.019012    -1.067177    0.941482
H     2.437513    2.061188    -0.632252
H     5.029102    1.536918    0.109507
O     0.090618    -2.059072    -0.189994
C     -0.256064    -2.982216    0.816423
C     -0.085125    -4.235912    0.350701
C     0.385758    -4.132184    -1.007480
C     0.483002    -2.820946    -1.307162
H     -0.614257    -2.567109    1.743783
H     -0.272591    -5.146321    0.903968
H     0.801144    -2.260358    -2.168532
H     0.621590    -4.950520    -1.674426
O     -2.019433    -0.055307    -0.034818
C     -2.804579    0.879536    0.667642
C     -4.032807    0.363762    0.873016
C     -4.051043    -0.957376    0.296408
C     -2.831522    -1.189099    -0.230854
H     -2.328848    1.822428    0.878428
H     -4.852327    0.864422    1.370441
H     -2.370179    -2.011717    -0.750005
H     -4.887586    -1.642812    0.277675
O     0.009490    0.035663    -2.181575
C     -1.114236    -0.076384    -3.019864
C     -0.722102    0.028564    -4.306679
C     0.707014    0.212928    -4.310571
C     1.118956    0.215145    -3.025900
H     -2.055735    -0.225236    -2.520482
H     -1.371167    -0.020688    -5.170455
H     2.066925    0.319775    -2.527729
H     1.342880    0.330854    -5.177572
