37
03/24/2023 16:57, XYZ structure generated by mol3D Class, molSimplify
Fe     -0.005584    -0.005162    0.008003
N     0.117630    2.080032    0.055035
N     2.079585    0.116220    -0.035687
C     2.466188    1.526936    -0.356794
C     1.527386    2.463910    0.383265
H     1.736916    3.508070    0.129436
H     1.657707    2.359026    1.465236
H     2.365464    1.661710    -1.438582
H     3.509618    1.734252    -0.098218
H     -0.138101    2.521323    -0.832146
H     -0.505027    2.519145    0.736060
H     2.518823    -0.144381    0.851067
H     2.518923    -0.503865    -0.718894
N     0.037543    -2.090558    0.129759
N     -0.052703    -0.128521    2.093408
C     -0.380014    -1.538383    2.477637
C     0.359718    -2.477015    1.540213
H     0.101467    -3.520482    1.747787
H     1.441587    -2.376113    1.674274
H     -1.462011    -1.669262    2.373676
H     -0.125251    -1.747686    3.521618
H     -0.849513    -2.529701    -0.129975
H     0.720145    -2.530043    -0.490887
H     0.834394    0.127758    2.534553
H     -0.734005    0.493840    2.532512
N     -2.091069    0.041414    -0.115717
N     -0.126896    -0.049056    -2.077254
C     -1.536711    -0.374120    -2.463541
C     -2.475448    0.365648    -1.526261
H     -3.518997    0.108945    -1.735345
H     -2.373082    1.447550    -1.658992
H     -1.669008    -1.456067    -2.361012
H     -1.744512    -0.117795    -3.507435
H     -2.532233    -0.844973    0.142884
H     -2.529850    0.724375    0.505033
H     0.130980    0.838422    -2.516662
H     0.495134    -0.730458    -2.516654
