12

Fe     0.000586    0.000670    -0.037670
C     0.000402    2.284845    0.007481
O     -0.000046    3.418695    0.021484
C     2.284796    0.000594    0.007895
O     3.418643    0.000218    0.022086
C     0.000338    -2.284227    0.009225
O     0.000030    -3.418070    0.023753
C     -2.284279    0.000247    0.008800
O     -3.418125    -0.000174    0.023127
I     0.000386    0.000970    2.676447
N     -0.001777    -0.002429    -3.262944
C     -0.000954    -0.001341    -2.092990
