31

Fe     -0.073577    -0.061671    -0.038750
C     -0.256981    2.133492    -0.551768
H     0.509342    2.622242    -1.172319
N     -1.228829    2.979785    -0.341480
H     -2.027936    2.717733    0.231918
H     -1.258996    3.939072    -0.693013
C     2.209968    0.394582    0.296621
H     2.834712    0.979426    -0.396815
N     2.947976    0.014053    1.299244
H     2.547711    -0.541713    2.053405
H     3.944751    0.216635    1.409078
C     0.321137    -2.224641    0.287440
H     1.381280    -2.516723    0.243823
N     -0.401581    -3.298929    0.455763
H     -1.415112    -3.250358    0.521068
H     -0.025968    -4.245871    0.533701
C     -2.381833    -0.429959    -0.298758
H     -2.982970    -1.046184    0.388633
N     -3.165995    0.048840    -1.221121
H     -2.793062    0.647135    -1.956378
H     -4.170217    -0.132111    -1.295104
C     -0.539076    0.162772    2.140795
H     -1.260883    -0.513198    2.623653
N     -0.034174    0.955097    3.049243
H     0.643472    1.669986    2.792869
H     -0.284373    0.946799    4.039996
C     0.235860    -0.512892    -2.193264
H     -0.552441    -1.123360    -2.659443
N     1.199076    -0.342080    -3.058568
H     2.029477    0.195428    -2.823757
H     1.203395    -0.719825    -4.007800
