13

Fe     0.026401    0.082058    0.076395
C     -0.287534    2.309382    -0.291959
S     -0.485118    3.787250    -0.572864
C     2.219947    0.437458    0.383670
S     3.705913    0.675131    0.588131
C     0.340994    -2.145384    0.443918
S     0.539443    -3.623425    0.723196
C     -2.167012    -0.273062    -0.231367
S     -3.652885    -0.510249    -0.437220
C     -0.331185    0.401921    2.300278
S     -0.561277    0.577326    3.789911
C     0.384040    -0.237772    -2.148194
S     0.614581    -0.413742    -3.637697
