67
03/24/2023 16:57, XYZ structure generated by mol3D Class, molSimplify
Fe     -0.035217    -0.026122    0.018086
P     -0.410069    2.560892    -0.433158
C     -0.915295    5.594681    -0.986503
C     0.317883    5.049017    -1.360139
C     0.660289    3.712296    -1.166796
C     -1.827174    3.496863    -0.079993
C     -1.934360    4.853682    -0.377811
H     -1.091024    6.648815    -1.179632
H     1.048715    5.705673    -1.826505
H     1.643500    3.370845    -1.481621
H     -2.668970    2.992857    0.388502
H     -2.860366    5.365228    -0.125629
P     2.562678    0.396730    0.398315
C     5.606364    0.931826    0.807720
C     4.709865    1.459904    1.743974
C     3.329659    1.289211    1.671371
C     3.884153    -0.128988    -0.593995
C     5.211154    0.175452    -0.301861
H     6.666655    1.118266    0.950461
H     5.114391    2.034719    2.573733
H     2.699521    1.728729    2.440161
H     3.656849    -0.720956    -1.476656
H     5.983512    -0.193851    -0.972509
P     0.324683    -2.620983    0.472354
C     0.707295    -5.666966    1.053582
C     1.583691    -4.761254    1.661581
C     1.512693    -3.381423    1.481437
C     -0.601310    -3.955420    -0.136061
C     -0.330981    -5.280593    0.198721
H     0.840328    -6.725720    1.255236
H     2.362535    -5.156768    2.309458
H     2.236944    -2.746266    1.985501
H     -1.431056    -3.739910    -0.804768
H     -0.961528    -6.058063    -0.226410
P     -2.628873    -0.451000    -0.365632
C     -5.689732    -0.816880    -0.831684
C     -5.218488    -0.795250    0.486216
C     -3.877116    -0.634732    0.823797
C     -3.481785    -0.510527    -1.874092
C     -4.861818    -0.680295    -1.951969
H     -6.755816    -0.945650    -0.993802
H     -5.940976    -0.909472    1.290950
H     -3.592260    -0.628324    1.872678
H     -2.908068    -0.411662    -2.791832
H     -5.322321    -0.708149    -2.936736
P     -0.452312    0.382326    2.580977
C     -0.704859    0.903015    5.653067
C     -0.652678    -0.422758    5.207255
C     -0.533670    -0.781079    3.867050
C     -0.534598    1.904520    3.412557
C     -0.647041    2.008627    4.796870
H     -0.794659    1.083455    6.720261
H     -0.705683    -1.215488    5.949857
H     -0.492487    -1.835565    3.606323
H     -0.504383    2.814323    2.818509
H     -0.694192    3.001630    5.237868
P     0.411087    -0.423799    -2.538122
C     1.108424    -0.855155    -5.554267
C     0.642506    0.402918    -5.155373
C     0.304484    0.717618    -3.841724
C     1.002462    -1.861384    -3.311774
C     1.279477    -1.930404    -4.674793
H     1.349872    -1.005086    -6.602465
H     0.541595    1.176206    -5.913328
H     -0.044011    1.721607    -3.613700
H     1.155486    -2.745408    -2.698044
H     1.646463    -2.870621    -5.079824
