28

Fe     0.006254    0.001019    -0.366535
N     0.336267    2.231679    -0.242285
C     0.496789    3.366043    -0.089678
C     0.696966    4.792668    0.135221
H     1.651984    5.112241    -0.292816
H     -0.108663    5.365287    -0.334299
H     0.701512    4.998957    1.210219
N     2.236134    -0.328908    -0.234081
C     3.369673    -0.489461    -0.075521
C     4.795076    -0.689680    0.156909
H     5.370494    0.113578    -0.313251
H     4.996242    -0.689906    1.232887
H     5.115975    -1.646700    -0.265624
N     -0.325095    -2.229259    -0.241828
C     -0.498121    -3.365353    -0.118624
C     -0.717726    -4.795557    0.061893
H     -1.175190    -4.979667    1.039040
H     -1.379573    -5.177920    -0.721112
H     0.235276    -5.330912    0.011373
N     -2.224577    0.331566    -0.239260
C     -3.358476    0.492394    -0.083528
C     -4.784375    0.692978    0.145560
H     -5.103926    1.650315    -0.277278
H     -5.358953    -0.109837    -0.326379
H     -4.988135    0.692782    1.221051
I     0.002144    0.007613    2.496598
N     0.005772    -0.010740    -3.625899
C     0.006355    -0.005191    -2.455722
