25
03/24/2023 16:57, XYZ structure generated by mol3D Class, molSimplify
Fe     -0.020844    -0.004468    0.034417
P     0.303011    2.226495    -0.332368
H     -0.527075    2.868288    -1.278856
N     1.215834    3.373497    0.193837
H     1.935182    3.217817    0.904657
P     2.205909    -0.399854    -0.284200
H     3.118587    0.612520    0.089227
N     3.126076    -1.542717    -0.807181
H     2.754425    -2.429782    -1.156370
P     -0.344632    -2.235423    0.401219
H     0.485652    -2.877321    1.347457
N     -1.257751    -3.382331    -0.124720
H     -1.977180    -3.226398    -0.835415
P     -2.247498    0.390982    0.353143
H     -3.160022    -0.622880    -0.016621
N     -3.167799    1.535064    0.873185
H     -2.796484    2.423387    1.219503
P     0.380231    0.328899    2.259322
H     -0.419962    1.270834    2.943994
N     1.363597    -0.182762    3.353330
H     2.080527    -0.886856    3.160642
P     -0.421896    -0.337885    -2.190428
H     0.380487    -1.277512    -2.875713
N     -1.406682    0.171889    -3.284044
H     -2.125229    0.874188    -3.090806
