23

Fe     0.034971    0.024219    -0.020791
N     -0.207882    2.086807    0.214110
H     -1.165505    2.390111    0.019399
H     -0.015459    2.417851    1.163242
H     0.375403    2.664943    -0.397596
N     2.082677    0.216415    0.375636
H     2.348699    1.182091    0.585107
H     2.422946    -0.333695    1.169373
H     2.684890    -0.048956    -0.408742
N     0.271124    -2.049181    -0.208923
H     1.227953    -2.350069    -0.006452
H     -0.321069    -2.618444    0.402359
H     0.091133    -2.400832    -1.153649
N     -2.015537    -0.190610    -0.376125
H     -2.257464    -1.154472    -0.619398
H     -2.614490    0.036243    0.422095
H     -2.378519    0.369086    -1.152958
N     -0.309009    -0.195042    2.039154
H     -1.129660    0.305001    2.393012
H     -0.455195    -1.166103    2.326471
H     0.463363    0.132901    2.625838
C     0.338664    0.261900    -1.838801
O     0.527203    0.421252    -2.949410
