29

Fe     -0.000220    0.001111    -0.006859
N     -0.236895    2.199254    0.376403
H     -1.215018    2.427814    0.564802
H     0.284318    2.545596    1.184680
H     0.027971    2.788835    -0.415458
N     2.213131    0.315491    -0.305820
H     2.475789    1.302979    -0.310633
H     2.783166    -0.115647    0.424621
H     2.550802    -0.054371    -1.196633
N     0.238065    -2.198048    -0.385221
H     1.218678    -2.428500    -0.557560
H     -0.040648    -2.786648    0.402612
H     -0.270836    -2.544094    -1.201442
N     -2.213823    -0.313945    0.287757
H     -2.481122    -1.300021    0.267574
H     -2.547635    0.034445    1.188609
H     -2.783618    0.138127    -0.430124
C     0.514653    -0.517945    3.309004
N     0.340033    -0.342643    2.175318
C     0.732637    -0.737546    4.732986
H     0.712839    0.219190    5.265418
H     1.704112    -1.216350    4.894213
H     -0.054627    -1.384170    5.134847
C     -0.515380    0.517995    -3.322762
N     -0.341531    0.345100    -2.188595
C     -0.732721    0.734461    -4.747320
H     -0.712504    -0.223455    -5.277613
H     0.054633    1.380289    -5.150274
H     -1.704244    1.212654    -4.910054
