48

Fe     -0.002639    -0.004233    -0.089644
C     -0.012637    -0.029324    2.265427
O     -0.016924    -0.035813    3.393596
O     -0.039820    2.199297    -0.114795
C     0.250829    3.097001    0.926987
C     0.006552    4.358902    0.516785
C     -0.463223    4.284807    -0.844915
C     -0.478360    2.982523    -1.196109
H     0.630749    2.661064    1.836845
H     0.146061    5.255801    1.104944
H     -0.749376    2.433401    -2.082834
H     -0.749284    5.116007    -1.474926
O     2.122228    0.018533    0.068868
C     2.927835    -1.044917    0.522758
C     4.201020    -0.620415    0.639082
C     4.234299    0.768605    0.249096
C     2.978690    1.127973    -0.084755
H     2.414740    -1.979783    0.673739
H     5.040001    -1.220651    0.963683
H     2.503511    2.032589    -0.425688
H     5.104958    1.410031    0.224144
O     0.033658    -2.219086    -0.183707
C     -0.141318    -3.151360    0.852080
C     0.003503    -4.401862    0.366135
C     0.286390    -4.283856    -1.042783
C     0.297316    -2.968848    -1.343517
H     -0.380289    -2.743655    1.821074
H     -0.082476    -5.317776    0.935034
H     0.470706    -2.393193    -2.236544
H     0.459488    -5.094830    -1.737026
O     -2.129110    -0.057353    0.063736
C     -2.941711    0.953356    0.615425
C     -4.189765    0.475727    0.788132
C     -4.197831    -0.894864    0.335716
C     -2.953224    -1.191103    -0.088615
H     -2.454997    1.901223    0.774293
H     -5.029581    1.028390    1.187112
H     -2.470031    -2.060030    -0.502903
H     -5.045151    -1.567413    0.330301
O     0.023073    0.021757    -2.304531
C     1.152375    0.213352    -3.114710
C     0.773789    0.267621    -4.409069
C     -0.658466    0.109520    -4.444874
C     -1.080036    -0.035700    -3.170082
H     2.091792    0.279531    -2.591161
H     1.431362    0.403968    -5.256806
H     -2.034251    -0.189480    -2.691713
H     -1.285884    0.103736    -5.325741
