21

Fe     0.002084    0.003386    -0.001015
P     -0.399612    2.633772    0.470278
H     -1.279033    3.002915    1.509545
H     0.722021    3.413832    0.819592
H     -0.923360    3.420146    -0.576895
P     2.644273    0.404850    -0.399246
H     3.098500    1.734178    -0.521235
H     3.537012    -0.067139    0.585325
H     3.236076    -0.157778    -1.549472
P     0.400818    -2.635096    -0.437288
H     1.547974    -3.246033    0.110946
H     -0.588507    -3.525622    0.028339
H     0.511021    -3.073772    -1.773164
P     -2.645614    -0.401686    0.365383
H     -3.194772    -1.617423    -0.091762
H     -3.129944    -0.400151    1.690043
H     -3.551787    0.505673    -0.222317
C     0.374073    -0.335917    2.224718
O     0.565207    -0.511056    3.322961
C     -0.368336    0.340412    -2.227200
O     -0.560413    0.511274    -3.325946
