25
03/24/2023 16:57, XYZ structure generated by mol3D Class, molSimplify
Fe     0.021313    -0.028577    0.026424
N     1.134359    1.765930    0.436176
P     0.659279    3.207541    0.582881
H     -0.671669    3.663009    0.478441
H     1.523429    4.288864    0.846159
N     1.898432    -1.216141    0.112755
P     3.313457    -0.706021    0.347960
H     4.449523    -1.540208    0.376374
H     3.696190    0.635113    0.564189
N     -1.091947    -1.823048    -0.382648
P     -0.616950    -3.264625    -0.529935
H     -1.481569    -4.345721    -0.792627
H     0.714020    -3.720248    -0.426509
N     -1.855845    1.158813    -0.060538
P     -3.270932    0.648487    -0.294906
H     -4.406574    1.483254    -0.323640
H     -3.654032    -0.692715    -0.510016
N     -0.280393    -0.332578    2.067297
P     -0.435858    -0.576094    3.554891
H     0.411824    -1.376756    4.351339
H     -1.458509    -0.042686    4.368758
N     0.323331    0.275511    -2.014359
P     0.478308    0.519981    -3.501856
H     1.501397    -0.012254    -4.315947
H     -0.370012    1.320371    -4.297891
