25
03/24/2023 16:57, XYZ structure generated by mol3D Class, molSimplify
Fe     -0.049147    -0.130457    -0.060048
S     0.111160    2.215501    0.315638
H     -0.253028    2.731828    -0.881577
O     1.778815    2.362488    0.179323
H     2.068361    3.193653    0.607772
S     2.273430    -0.356444    0.314159
H     2.345304    0.247459    1.524033
O     2.266263    -1.965648    0.815820
H     3.170148    -2.330183    0.724360
S     -0.195183    -2.473480    -0.452548
H     -0.080730    -3.008240    0.786350
O     -1.857092    -2.593579    -0.643080
H     -2.067534    -3.386834    -1.176264
S     -2.386198    0.064676    -0.420665
H     -2.429659    -0.327122    -1.716554
O     -2.478281    1.734690    -0.615527
H     -3.399147    2.023824    -0.453697
S     -0.503660    -0.489086    2.254397
H     -1.527835    0.374064    2.481645
O     0.724050    0.344356    3.028210
H     0.791669    0.018413    3.949191
S     0.423914    0.239786    -2.376575
H     1.450377    -0.619497    -2.606478
O     -0.801801    -0.589041    -3.162493
H     -0.857536    -0.262904    -4.084278
