19

Fe     -0.000323    0.000303    -0.001846
N     -0.220937    2.220948    0.370829
H     -1.177527    2.496063    0.585588
H     0.361686    2.520842    1.151055
H     0.048182    2.718431    -0.477065
N     2.227124    0.265936    -0.299839
H     2.499050    1.244923    -0.364701
H     2.696615    -0.133603    0.512144
H     2.558655    -0.188062    -1.149296
N     0.220812    -2.220586    -0.373119
H     1.178131    -2.495329    -0.585076
H     -0.050795    -2.718552    0.473672
H     -0.359397    -2.520270    -1.155244
N     -2.226807    -0.266579    0.302369
H     -2.498361    -1.245581    0.368378
H     -2.552571    0.186763    1.154420
H     -2.701788    0.133627    -0.506065
Cl     0.391719    -0.383481    2.388398
Cl     -0.393457    0.384196    -2.390844
