25

Fe     0.080578    -0.129841    -0.062743
O     -0.250002    1.873295    -0.231324
H     -0.973027    2.182471    -0.804185
P     1.048411    3.057058    -0.135589
H     1.270838    2.815484    1.246421
P     2.615162    1.583388    -0.825789
H     3.633630    2.117417    0.014974
O     2.021977    0.317964    0.259570
H     2.613582    -0.459737    0.266160
O     0.471831    -2.079954    0.312374
H     0.266729    -2.761124    -0.350966
P     0.506042    -2.727552    1.945549
H     1.635615    -1.948696    2.316514
P     -1.006495    -1.237159    2.711154
H     -0.405580    -1.130651    3.997984
O     -0.201748    0.120920    1.926185
H     -0.631598    0.975637    2.120606
O     -1.888320    -0.445365    -0.453077
H     -2.524544    -0.514204    0.282807
P     -2.543805    -1.118918    -1.941530
H     -1.895122    -2.385467    -1.848126
P     -0.934362    -0.292000    -3.255766
H     -1.280746    1.057789    -2.955367
O     0.334161    -0.437661    -2.052850
H     1.221761    -0.456720    -2.454921
