35

Fe     0.071579    0.075330    0.002180
N     -0.276757    2.225742    0.314597
C     -0.458591    3.351554    0.515524
C     -0.687931    4.767424    0.767631
H     -0.247862    5.365988    -0.036610
H     -1.763177    4.968089    0.814771
H     -0.228778    5.055237    1.718955
N     2.230160    0.399406    0.325239
C     3.358749    0.564492    0.527031
C     4.778467    0.771332    0.782552
H     5.092049    1.742970    0.387461
H     4.971719    0.744756    1.859681
H     5.363786    -0.015407    0.295742
N     0.424754    -2.067574    -0.334919
C     0.608395    -3.202153    -0.475793
C     0.839332    -4.629118    -0.652869
H     0.212850    -5.196309    0.043168
H     0.591147    -4.923197    -1.677844
H     1.891154    -4.862967    -0.459043
N     -2.088070    -0.247413    -0.345194
C     -3.221577    -0.423804    -0.504656
C     -4.647925    -0.645417    -0.705764
H     -5.111599    -0.972389    0.230331
H     -5.126707    0.282088    -1.035964
H     -4.802683    -1.415273    -1.468537
N     -0.233681    -0.278077    2.161034
C     -0.399121    -0.460298    3.292404
C     -0.605512    -0.689094    4.716889
H     -1.670074    -0.838329    4.923005
H     -0.052499    -1.578451    5.035678
H     -0.249221    0.173773    5.288648
N     0.326169    0.441727    -2.162083
H     -0.157405    1.285052    -2.474497
H     -0.038389    -0.325403    -2.728456
H     1.307298    0.555733    -2.419381
