54

Fe     -0.012049    0.025095    -0.169546
O     -0.176582    0.035395    2.189294
H     0.612168    0.004025    2.754104
H     -0.934450    0.185152    2.777954
C     0.097819    -0.027858    -2.407288
N     0.092544    -0.098676    -3.569040
C     0.077343    -0.181467    -4.997517
H     -0.497495    -1.060723    -5.298014
H     1.103251    -0.267861    -5.362866
H     -0.386519    0.720310    -5.404062
C     0.002482    5.118792    0.034923
C     0.305395    4.348269    1.157963
C     0.292702    2.963035    1.041886
N     -0.004831    2.317506    -0.105804
C     -0.302851    3.073807    -1.182712
C     -0.307536    4.465424    -1.158404
H     0.007777    6.203131    0.090128
H     0.551406    4.806265    2.110220
H     0.521615    2.329448    1.889199
H     -0.543154    2.533955    -2.092169
H     -0.549184    5.022011    -2.057651
C     4.973606    0.004188    0.505582
C     4.180518    -0.989130    1.081953
C     2.803954    -0.943426    0.891745
N     2.191941    0.030069    0.182780
C     2.967082    0.986092    -0.370750
C     4.351675    1.007609    -0.238448
H     6.052168    -0.004497    0.633035
H     4.617005    -1.792747    1.665608
H     2.160579    -1.711429    1.307160
H     2.446559    1.756153    -0.929522
H     4.926452    1.797785    -0.709610
C     0.058685    -5.050704    0.095882
C     -0.495490    -4.282259    1.120339
C     -0.500816    -2.897215    0.992668
N     0.008658    -2.253484    -0.078648
C     0.545982    -3.006057    -1.061115
C     0.589976    -4.396055    -1.016304
H     0.077577    -6.134440    0.163414
H     -0.918106    -4.743104    2.006742
H     -0.913144    -2.266417    1.770785
H     0.953321    -2.467165    -1.910152
H     1.031603    -4.949714    -1.838239
C     -5.016260    -0.023606    -0.212982
C     -4.324518    0.956362    0.501085
C     -2.934145    0.927302    0.505185
N     -2.219838    -0.016384    -0.142962
C     -2.896604    -0.960823    -0.828770
C     -4.285183    -0.997122    -0.894711
H     -6.101754    -0.027246    -0.239628
H     -4.850849    1.734257    1.044067
H     -2.360534    1.685445    1.027757
H     -2.295772    -1.709995    -1.332937
H     -4.777533    -1.777282    -1.466185
