31

Fe     -0.038815    0.070186    -0.099045
O     -0.101523    2.080877    -0.438514
H     -0.115150    2.167619    -1.409290
P     -0.872331    3.505216    0.265210
H     -1.642845    2.782227    1.217449
H     0.164387    3.782290    1.196391
O     1.971938    0.409594    -0.036621
H     2.058578    1.380394    -0.023624
P     3.394411    -0.293053    0.738729
H     2.669682    -1.248225    1.503871
H     3.677919    -1.221481    -0.298710
O     0.024419    -1.940314    0.240081
H     0.037999    -2.027389    1.210829
P     0.798952    -3.362444    -0.463901
H     -0.237801    -3.643285    -1.393896
H     1.566117    -2.637309    -1.417190
O     -2.049216    -0.269141    -0.162676
H     -2.136700    -1.239822    -0.176853
P     -3.473365    0.436300    -0.931999
H     -3.745845    1.370321    0.103372
H     -2.750108    1.385243    -1.706373
O     -0.378069    0.132976    1.911677
H     -1.348821    0.146457    1.998621
P     0.325363    0.907395    3.334244
H     1.252947    -0.130831    3.617626
H     1.281203    1.671826    2.609618
O     0.300545    0.007890    -2.109640
H     1.271308    -0.005780    -2.196529
P     -0.403275    -0.763764    -3.533441
H     -1.351612    -1.538632    -2.809920
H     -1.338435    0.270184    -3.807358
