33

Fe     -0.082153    -0.075657    0.134139
C     0.395047    3.177211    -0.462438
N     0.228526    2.050202    -0.254620
C     0.604625    4.594490    -0.725146
H     0.422796    4.809336    -1.783161
H     1.634264    4.870886    -0.476063
H     -0.081480    5.191779    -0.115932
C     3.144074    -0.624023    -0.458544
N     2.019572    -0.435381    -0.256201
C     4.557086    -0.860738    -0.713656
H     5.102927    0.088178    -0.692087
H     4.684251    -1.324508    -1.697512
H     4.966693    -1.527529    0.052203
C     -0.576031    -3.347024    0.599592
N     -0.403009    -2.213273    0.438906
C     -0.794060    -4.772962    0.801005
H     0.134394    -5.248023    1.134184
H     -1.116983    -5.237943    -0.136100
H     -1.565917    -4.927917    1.561832
C     -3.346799    0.440445    0.480866
N     -2.209601    0.260842    0.356265
C     -4.776028    0.666001    0.635809
H     -5.128839    0.196921    1.560173
H     -5.314427    0.232951    -0.213815
H     -4.980510    1.740829    0.678545
C     0.445170    0.407312    3.391436
N     0.262405    0.237876    2.260737
C     0.675512    0.620778    4.814009
H     0.041303    -0.051794    5.400356
H     0.440845    1.656515    5.079435
H     1.724628    0.420297    5.054544
C     -0.461439    -0.420596    -2.185305
O     -0.646361    -0.595744    -3.285801
