54

Fe     0.031724    -0.011771    0.063520
C     0.074658    0.024537    -1.917019
N     0.089834    0.078363    -3.077636
C     0.100194    0.152554    -4.509202
H     -0.485080    -0.676644    -4.914547
H     1.131266    0.085060    -4.864307
H     -0.334333    1.106251    -4.817404
O     0.048344    2.064509    -0.002268
C     -1.067195    2.905141    -0.107991
C     -0.658103    4.159076    -0.393812
C     0.778827    4.130266    -0.490838
C     1.173000    2.860443    -0.257605
H     -2.018063    2.435119    0.072770
H     -1.298405    5.021834    -0.516848
H     2.119741    2.352180    -0.213260
H     1.429943    4.966614    -0.705559
O     2.155676    -0.028532    0.127972
C     2.957188    0.146978    1.265101
C     4.255334    -0.019371    0.933452
C     4.303089    -0.321607    -0.473485
C     3.031887    -0.322285    -0.925771
H     2.430614    0.381511    2.171870
H     5.097801    0.064141    1.606084
H     2.571000    -0.505806    -1.879763
H     5.186772    -0.511156    -1.066877
O     0.055960    -2.089563    0.027536
C     1.169452    -2.908074    0.254581
C     0.820011    -4.198669    0.067703
C     -0.572745    -4.219174    -0.297754
C     -1.002238    -2.939264    -0.312439
H     2.070992    -2.396280    0.541491
H     1.473665    -5.052837    0.176191
H     -1.943676    -2.455234    -0.504676
H     -1.173013    -5.091832    -0.516317
O     -2.136508    -0.006627    0.050021
C     -2.969390    -0.190485    -1.061731
C     -4.259717    -0.020866    -0.702454
C     -4.270855    0.294468    0.701140
C     -2.988483    0.292766    1.122479
H     -2.471461    -0.435158    -1.983118
H     -5.118044    -0.106490    -1.354103
H     -2.508445    0.465210    2.067874
H     -5.138445    0.494744    1.314877
C     -0.281013    0.009466    4.921027
C     -0.064745    1.192574    4.213235
C     0.029667    1.145022    2.827653
N     -0.076273    -0.008452    2.120892
C     -0.286889    -1.150755    2.817005
C     -0.394954    -1.180090    4.203444
H     -0.359605    0.015726    6.003557
H     0.032244    2.145295    4.722752
H     0.198948    2.049042    2.258825
H     -0.375429    -2.062643    2.243702
H     -0.565101    -2.127217    4.703665
