33

Fe     -0.350060    0.064197    -0.047251
N     0.580078    2.012681    0.264890
C     1.089706    3.038888    0.436948
C     1.731604    4.327709    0.654912
H     1.577542    4.974306    -0.215269
H     1.304776    4.811166    1.539859
H     2.806602    4.186859    0.808114
N     1.577017    -0.930226    0.158884
C     2.608197    -1.449121    0.259084
C     3.904090    -2.101096    0.383790
H     4.630531    -1.616756    -0.277019
H     4.258583    -2.031828    1.417373
H     3.817328    -3.156635    0.105779
N     -1.283977    -1.880783    -0.369885
C     -1.782761    -2.909509    -0.557632
C     -2.407023    -4.203486    -0.795211
H     -2.518575    -4.371470    -1.871437
H     -1.785153    -4.999221    -0.372025
H     -3.394512    -4.233891    -0.323376
N     -2.274733    1.055179    -0.236539
C     -3.307959    1.572620    -0.318298
C     -4.607622    2.221398    -0.419894
H     -4.583263    3.186737    0.096539
H     -4.862604    2.385197    -1.472037
H     -5.375547    1.590412    0.039714
P     -0.718269    -0.273919    2.625982
H     -0.581561    -1.590122    3.120056
H     -1.950372    0.041911    3.239411
H     0.135729    0.372344    3.546546
P     0.072420    0.333376    -2.721187
H     -0.788176    1.170759    -3.464985
H     0.002122    -0.808599    -3.549564
H     1.302323    0.843734    -3.191178
