13

Fe     0.138757    -0.184773    0.229482
P     0.580349    2.405676    0.611335
P     0.923298    4.251708    0.919981
P     2.728664    -0.562269    -0.210604
P     4.579032    -0.843544    -0.552128
P     -0.305987    -2.774343    -0.155056
P     -0.612393    -4.631641    -0.432482
P     -2.452486    0.193876    0.667871
P     -4.302188    0.473802    1.014140
P     0.522410    -0.619906    2.810552
P     0.821168    -0.960056    4.658292
P     -0.247263    0.251143    -2.353012
P     -0.547056    0.586185    -4.201509
