34

Fe     -0.000007    0.000024    -0.108943
O     -0.000072    -0.001112    2.006455
H     0.782713    0.032123    2.577919
H     -0.783225    -0.029803    2.577684
C     -0.000874    1.940462    -0.071495
N     -0.000888    3.101827    -0.040136
C     -0.000015    4.532422    -0.004068
H     0.836017    4.905517    -0.600306
H     0.107607    4.863849    1.031269
H     -0.942384    4.902646    -0.414509
C     1.937797    0.000306    -0.073961
N     3.099543    0.000522    -0.039514
C     4.530960    -0.000010    -0.007645
H     4.902048    -0.836589    -0.604358
H     4.865691    -0.108185    1.026789
H     4.899536    0.942988    -0.418131
C     0.000883    -1.940507    -0.071693
N     0.000865    -3.101838    -0.040217
C     0.000110    -4.532448    -0.004100
H     -0.835959    -4.905615    -0.600246
H     -0.107441    -4.863853    1.031251
H     0.942500    -4.902587    -0.414566
C     -1.937660    -0.000345    -0.073337
N     -3.099542    -0.000722    -0.038485
C     -4.530857    0.000748    -0.007352
H     -4.906626    -0.606268    -0.834462
H     -4.891173    1.027379    -0.105597
H     -4.869240    -0.420771    0.942215
C     -0.000254    0.000392    -1.995572
N     -0.000440    0.000649    -3.157501
C     -0.000044    -0.000050    -4.588247
H     -0.606058    -0.835768    -4.946483
H     1.026690    -0.107815    -4.946246
H     -0.420202    0.942431    -4.947732
