34

Fe     0.065344    0.088027    0.086736
C     0.546148    3.358052    0.461332
N     0.377488    2.216942    0.361416
C     0.758938    4.793122    0.582453
H     0.969084    5.221092    -0.403284
H     1.606679    4.990061    1.246677
H     -0.136480    5.268861    0.995408
C     3.328390    -0.433813    0.590040
N     2.200924    -0.268230    0.383730
C     4.746707    -0.641522    0.849276
H     5.206209    0.296343    1.177875
H     5.248034    -0.983843    -0.061820
H     4.875780    -1.395191    1.632755
C     -0.413126    -3.176593    -0.417283
N     -0.232453    -2.041822    -0.273819
C     -0.640180    -4.603482    -0.599294
H     0.174805    -5.171456    -0.138913
H     -0.682978    -4.842333    -1.666947
H     -1.586342    -4.892828    -0.130461
C     -3.170039    0.666133    -0.493169
N     -2.048812    0.458808    -0.290801
C     -4.579977    0.926640    -0.748832
H     -5.196256    0.181519    -0.235489
H     -4.779772    0.877780    -1.824166
H     -4.846212    1.923315    -0.382089
C     -0.484533    -0.363045    3.360464
N     -0.290906    -0.219649    2.227840
C     -0.727466    -0.542472    4.785995
H     -1.707423    -1.003859    4.943905
H     -0.703930    0.427867    5.292291
H     0.044700    -1.187343    5.217652
S     0.466988    0.531710    -2.551109
H     -0.116386    -0.536396    -3.133007
H     1.719595    0.075154    -2.757312
