42

Fe     -0.045319    0.053780    -0.046232
N     0.282095    1.986247    -0.315523
C     0.498564    3.115514    -0.438667
C     0.772015    4.538708    -0.597628
H     1.421348    4.887019    0.211972
H     1.270756    4.719525    -1.555222
H     -0.163885    5.105856    -0.570377
N     1.888132    -0.206091    0.291304
C     3.017619    -0.323059    0.510117
C     4.442530    -0.471759    0.780512
H     5.017290    0.203720    0.138826
H     4.652248    -0.232334    1.827878
H     4.756209    -1.501801    0.583041
N     -0.373500    -1.875522    0.255256
C     -0.595548    -2.992063    0.458315
C     -0.874854    -4.400262    0.712075
H     -0.095992    -5.024562    0.262624
H     -0.901878    -4.588255    1.790146
H     -1.842120    -4.673958    0.278627
N     -1.981279    0.322856    -0.352926
C     -3.121197    0.454590    -0.496377
C     -4.558082    0.618864    -0.680709
H     -5.065727    0.583611    0.288483
H     -4.768125    1.582385    -1.155947
H     -4.947580    -0.183188    -1.315853
N     -0.335656    0.380896    1.914824
C     -0.504577    0.567989    3.043166
C     -0.717291    0.804246    4.466345
H     0.240770    0.789608    4.995546
H     -1.191598    1.779124    4.617413
H     -1.364633    0.025999    4.882838
C     0.641884    -0.747300    -4.758987
C     -0.160657    0.306053    -4.322597
C     -0.333214    0.502973    -2.957283
N     0.244223    -0.283068    -2.024737
C     1.018865    -1.301025    -2.454483
C     1.241132    -1.564475    -3.801226
H     0.795931    -0.927155    -5.818419
H     -0.650591    0.971042    -5.025890
H     -0.951589    1.311848    -2.589023
H     1.469116    -1.918520    -1.687394
H     1.874107    -2.397920    -4.086819
