32

Fe     0.146012    -0.143477    0.029366
P     0.568063    2.151068    -0.311844
H     1.030865    2.898702    0.790683
H     -0.479850    2.995113    -0.739333
H     1.540721    2.522861    -1.264316
P     2.460472    -0.381455    0.420627
H     3.004045    0.331193    1.509406
H     3.359533    0.021857    -0.589298
H     3.002502    -1.657188    0.689841
P     -0.274102    -2.444954    0.342327
H     -1.101180    -2.795493    1.429243
H     0.800954    -3.329850    0.575305
H     -0.924819    -3.166546    -0.681360
P     -2.169154    0.098650    -0.375052
H     -2.740547    -0.565760    -1.481039
H     -2.718887    1.381308    -0.588613
H     -3.037941    -0.355226    0.638782
C     -0.614343    0.638090    4.809798
C     -1.206709    1.456056    3.848185
C     -0.964153    1.203107    2.502903
N     -0.177210    0.193713    2.058723
C     0.390448    -0.589199    3.007705
C     0.201720    -0.404863    4.372545
H     -0.782794    0.808837    5.868464
H     -1.850067    2.283888    4.127352
H     -1.418598    1.839496    1.750972
H     1.024832    -1.399387    2.663604
H     0.690698    -1.073228    5.073525
P     0.490275    -0.543026    -2.282786
H     1.710797    -1.106975    -2.712210
H     0.434754    0.546718    -3.178132
H     -0.396336    -1.414035    -2.950854
