55

Fe     0.036088    -0.058658    0.027361
C     0.755213    4.746056    -0.584130
C     1.587503    3.821716    -1.214687
C     1.358665    2.464716    -1.015067
N     0.358028    1.982291    -0.245616
C     -0.436688    2.889490    0.364760
C     -0.273199    4.263758    0.224764
H     0.906766    5.812819    -0.716591
H     2.407832    4.139790    -1.849421
H     2.016826    1.733674    -1.470120
H     -1.232040    2.490643    0.981955
H     -0.946579    4.938509    0.742863
C     4.839901    -0.619453    0.742268
C     4.116116    0.357936    1.424725
C     2.749918    0.475639    1.190825
N     2.074664    -0.320148    0.331999
C     2.787196    -1.268614    -0.316269
C     4.155765    -1.447789    -0.147015
H     5.907860    -0.733836    0.900075
H     4.598743    1.028129    2.128293
H     2.167103    1.234578    1.697444
H     2.234916    -1.920571    -0.983134
H     4.667612    -2.227193    -0.701616
C     -0.649653    -4.843935    0.685838
C     0.176380    -4.106588    1.533805
C     0.339044    -2.744331    1.304478
N     -0.271055    -2.087117    0.293287
C     -1.076919    -2.811807    -0.515673
C     -1.288052    -4.177599    -0.360043
H     -0.793788    -5.909282    0.836752
H     0.694221    -4.575562    2.363905
H     0.981042    -2.148197    1.941295
H     -1.583640    -2.267528    -1.305098
H     -1.945220    -4.700782    -1.046659
C     -4.758904    0.595253    -0.720299
C     -3.823786    1.221566    -1.543872
C     -2.469790    1.019607    -1.299502
N     -2.000237    0.231131    -0.306218
C     -2.917959    -0.364443    0.487905
C     -4.289983    -0.208413    0.318328
H     -5.823563    0.732906    -0.881674
H     -4.131087    1.864117    -2.362241
H     -1.728496    1.528853    -1.905879
H     -2.529785    -0.991498    1.280826
H     -4.973434    -0.715072    0.991648
N     -0.246711    0.247923    1.976104
C     -0.417276    0.419868    3.109609
C     -0.631199    0.636719    4.536328
H     -0.755891    -0.323452    5.047413
H     0.227597    1.159341    4.969943
H     -1.530185    1.241254    4.694466
N     0.310426    -0.369412    -1.991408
H     1.163024    0.041547    -2.373753
H     -0.457941    -0.010260    -2.559723
H     0.364619    -1.368146    -2.192831
