51

Fe     0.004943    -0.087713    0.007766
C     0.769312    5.059412    0.032565
C     1.389657    4.251082    -0.919155
C     1.154993    2.877553    -0.886365
N     0.364586    2.291575    0.026330
C     -0.226118    3.075313    0.941819
C     -0.057199    4.458445    0.981051
H     0.925810    6.134865    0.034913
H     2.040815    4.670486    -1.679920
H     1.601605    2.211036    -1.616611
H     -0.847920    2.561276    1.667511
H     -0.564696    5.044019    1.741548
C     5.037189    -0.951440    0.516178
C     4.295817    -0.412607    1.566733
C     2.934611    -0.181571    1.377311
N     2.302797    -0.450354    0.223559
C     3.021865    -0.967919    -0.785863
C     4.385677    -1.235112    -0.683677
H     6.100236    -1.146161    0.629690
H     4.756508    -0.173062    2.519981
H     2.312488    0.229754    2.164808
H     2.470638    -1.155175    -1.702176
H     4.919189    -1.654679    -1.531065
C     -0.780273    -5.117165    -0.038818
C     -0.642809    -4.430312    1.167227
C     -0.429852    -3.053812    1.133745
N     -0.350738    -2.358266    -0.012665
C     -0.484634    -3.023582    -1.171948
C     -0.699911    -4.398807    -1.231522
H     -0.945873    -6.191274    -0.048806
H     -0.697505    -4.946487    2.120682
H     -0.317490    -2.458880    2.034714
H     -0.405145    -2.408432    -2.062694
H     -0.800789    -4.889116    -2.194861
C     -5.081379    0.607389    -0.540684
C     -4.558494    0.108072    0.651608
C     -3.178359    -0.047420    0.765970
N     -2.324538    0.259485    -0.224197
C     -2.834250    0.734864    -1.371724
C     -4.200135    0.928061    -1.572242
H     -6.152670    0.743660    -0.662968
H     -5.203123    -0.156873    1.484056
H     -2.723549    -0.419479    1.678413
H     -2.109400    0.958313    -2.147000
H     -4.557250    1.319873    -2.519701
N     -0.244783    0.047027    2.020549
C     -0.257056    0.246480    3.204762
O     -0.276535    0.444931    4.386814
N     0.245419    0.005650    -2.015178
C     0.353257    0.235794    -3.188918
O     0.462179    0.461137    -4.361511
