25

Fe     -0.047858    -0.031892    0.143959
O     -0.208851    2.108698    0.030053
H     0.183866    2.641311    -0.684221
H     -0.967287    2.615724    0.370683
O     2.086810    0.093609    -0.132991
H     2.443431    0.235900    -1.028207
H     2.771663    0.386145    0.493326
O     0.299679    -2.076615    0.388744
H     1.185292    -2.462439    0.500326
H     -0.358045    -2.793049    0.412002
O     -2.118887    -0.438691    -0.003390
H     -2.825665    -0.378830    0.663242
H     -2.551626    -0.564061    -0.866789
O     -0.070556    0.396380    2.265597
H     0.441778    1.108665    2.685738
H     -0.262079    -0.254431    2.962863
O     -0.079000    -0.087585    -2.124786
C     0.695338    -0.924209    -2.935264
C     0.517526    -0.593454    -4.233533
C     -0.415187    0.502884    -4.269240
C     -0.755447    0.778054    -2.990518
H     1.240344    -1.699356    -2.419776
H     0.982380    -1.074083    -5.083326
H     -1.407389    1.497941    -2.520315
H     -0.780959    1.013184    -5.150103
