31

Fe     -0.291341    0.067768    -0.051007
N     0.625998    2.017840    0.253692
C     1.055238    3.084692    0.396126
C     1.591457    4.426921    0.572205
H     2.617610    4.471541    0.192886
H     0.976360    5.145785    0.020745
H     1.590090    4.694388    1.634026
N     1.622181    -0.913933    0.221078
C     2.642198    -1.440251    0.379484
C     3.922606    -2.102704    0.581818
H     3.968578    -3.016198    -0.020373
H     4.739119    -1.436763    0.283485
H     4.042197    -2.365548    1.638095
N     -1.220418    -1.870481    -0.373260
C     -1.745572    -2.885654    -0.563588
C     -2.406341    -4.160892    -0.803671
H     -3.464712    -4.088181    -0.532193
H     -2.325595    -4.430496    -1.861833
H     -1.936047    -4.943979    -0.199949
N     -2.207021    1.033716    -0.322282
C     -3.222307    1.574053    -0.459337
C     -4.497607    2.254005    -0.629175
H     -5.163429    2.008783    0.204953
H     -4.339283    3.337258    -0.653525
H     -4.965587    1.941532    -1.568614
S     -0.850761    0.074130    2.594738
H     -1.292648    -1.177336    2.837709
H     0.350006    -0.137705    3.172298
S     0.140658    0.470311    -2.676522
H     -0.177399    -0.709209    -3.249429
H     1.470471    0.270464    -2.786231
