37

Fe     -0.009378    -0.005688    0.002812
P     -0.315934    2.279544    -0.457356
H     0.783312    2.798282    -1.204919
P     0.159703    3.721587    1.150326
H     -0.870591    3.816215    2.097503
H     1.301897    3.610415    1.975320
H     0.269486    5.039428    0.670588
P     2.275579    0.454168    0.311207
H     2.795464    1.200811    -0.788117
P     3.717957    -1.154006    -0.161962
H     3.811736    -2.100409    0.869129
H     3.608012    -1.979989    -1.303576
H     5.035888    -0.674313    -0.270873
P     0.298193    -2.290694    0.462599
H     -0.799740    -2.809787    1.211877
P     -0.178522    -3.733634    -1.143820
H     0.849613    -3.825633    -2.093595
H     -0.284176    -5.051843    -0.664161
H     -1.323044    -3.624892    -1.965950
P     -2.294380    -0.464964    -0.306123
H     -2.814046    -1.214605    0.791271
P     -3.737378    1.141396    0.170420
H     -3.828260    2.091767    -0.857270
H     -5.055787    0.661975    0.274653
H     -3.629528    1.962935    1.315464
P     -0.469949    0.302666    2.287636
H     -1.221933    -0.793725    2.806051
P     1.134193    -0.177370    3.732020
H     2.085651    0.849113    3.825212
H     0.653169    -0.282675    5.049755
H     1.954500    -1.323247    3.623654
P     0.451141    -0.313454    -2.282149
H     1.200563    0.784477    -2.800997
P     -1.154986    0.163753    -3.725332
H     -2.103968    -0.864940    -3.819308
H     -1.978025    1.307531    -3.615733
H     -0.674470    0.271354    -5.043068
