57

Fe     0.074182    -0.005354    0.127692
O     0.110649    2.214193    0.072483
C     -0.996575    3.072758    0.044031
C     -0.574443    4.349121    -0.083437
C     0.865639    4.320449    -0.142003
C     1.245084    3.028258    -0.047926
H     -1.954369    2.587823    0.141138
H     -1.205908    5.225832    -0.128649
H     2.185853    2.504628    -0.048110
H     1.525535    5.171448    -0.240182
O     2.359576    -0.010822    0.058534
C     3.235246    -0.170081    1.137676
C     4.511696    -0.144700    0.694394
C     4.462749    0.039233    -0.733556
C     3.159907    0.115648    -1.082172
H     2.765369    -0.273290    2.102251
H     5.399895    -0.241359    1.303703
H     2.624648    0.245718    -2.007860
H     5.305356    0.104049    -1.408445
O     0.073560    -2.222183    0.085454
C     1.186244    -3.058135    0.246158
C     0.788717    -4.348055    0.215177
C     -0.640507    -4.351644    0.026440
C     -1.039376    -3.063424    -0.047284
H     2.128088    -2.549215    0.368522
H     1.430283    -5.213101    0.310740
H     -1.980885    -2.558933    -0.191577
H     -1.281482    -5.219925    -0.044711
O     -2.267659    -0.013856    -0.056702
C     -3.225704    0.338828    0.897320
C     -4.458391    0.301360    0.343050
C     -4.293951    -0.090790    -1.032042
C     -2.970169    -0.267362    -1.238278
H     -2.852175    0.560339    1.883645
H     -5.389264    0.522466    0.847094
H     -2.368620    -0.548824    -2.086342
H     -5.075498    -0.220852    -1.768004
O     0.087064    -0.018741    -2.058810
C     -0.218204    1.052699    -2.914840
C     -0.159720    0.631100    -4.194850
C     0.197156    -0.766955    -4.174441
C     0.338020    -1.129884    -2.882534
H     -0.448819    1.984033    -2.424055
H     -0.348111    1.238167    -5.069739
H     0.599801    -2.036178    -2.362500
H     0.328695    -1.413811    -5.031091
C     -0.414404    0.042299    5.034461
C     -0.702090    -1.110881    4.302663
C     -0.547393    -1.089676    2.922728
N     -0.130138    0.011152    2.249527
C     0.146059    1.128412    2.968300
C     0.017491    1.180193    4.349982
H     -0.525117    0.054555    6.114625
H     -1.044045    -2.018057    4.789377
H     -0.769899    -1.965718    2.327845
H     0.478674    1.992989    2.408407
H     0.250605    2.100787    4.874148
