31

Fe     0.110903    0.038054    0.032946
C     0.358773    1.954694    0.295074
H     0.238525    2.642315    -0.553855
N     0.662768    2.649290    1.365006
H     0.828929    2.198820    2.260746
H     0.770268    3.662736    1.364789
C     2.035227    -0.210708    0.284931
H     2.731800    0.556986    -0.073987
N     2.726585    -1.178936    0.837469
H     2.285950    -1.998827    1.246575
H     3.744168    -1.180160    0.893199
C     -0.129910    -1.860203    -0.274673
H     0.721763    -2.551166    -0.191722
N     -1.191862    -2.559921    -0.613434
H     -2.102616    -2.122711    -0.724003
H     -1.186555    -3.573428    -0.722582
C     -1.771761    0.416125    -0.212637
H     -2.464047    0.385454    0.641864
N     -2.459137    0.740358    -1.286725
H     -2.008405    0.835713    -2.192626
H     -3.453625    0.962907    -1.274645
C     -0.153933    -0.310725    1.918667
H     0.430784    -1.092340    2.422248
N     -0.956776    0.236600    2.807206
H     -1.597385    0.986485    2.560531
H     -1.020730    -0.074085    3.775701
C     0.541617    0.336559    -1.844912
H     1.142740    1.211257    -2.133533
N     0.271239    -0.361220    -2.926399
H     -0.244439    -1.235765    -2.873916
H     0.619347    -0.120331    -3.853802
