52

Fe     -0.028723    0.042717    -0.025041
C     0.052316    0.021040    1.916980
N     0.111723    -0.002521    3.075899
C     0.198050    -0.031040    4.506523
H     0.810803    -0.883976    4.807794
H     -0.806798    -0.132241    4.923713
H     0.655088    0.899679    4.850617
O     -0.045319    2.111145    0.019974
C     1.011414    2.920324    0.458959
C     0.606200    4.206833    0.492551
C     -0.769135    4.236090    0.065055
C     -1.135972    2.965445    -0.205899
H     1.932498    2.405567    0.671020
H     1.212566    5.053995    0.782294
H     -2.038004    2.488581    -0.549282
H     -1.398900    5.110358    -0.027231
O     2.060778    0.064530    -0.147566
C     2.984544    -0.408642    0.796774
C     4.221642    -0.407064    0.258598
C     4.101242    0.083923    -1.090124
C     2.797478    0.355788    -1.307531
H     2.574715    -0.697873    1.748340
H     5.130702    -0.716870    0.755658
H     2.236854    0.757505    -2.133465
H     4.903106    0.218982    -1.803050
O     -0.002748    -2.024208    0.003441
C     -0.948397    -2.810028    0.676389
C     -0.479981    -4.069728    0.794105
C     0.824532    -4.102900    0.182103
C     1.088556    -2.861201    -0.276332
H     -1.858477    -2.305727    0.953660
H     -0.999275    -4.899768    1.253285
H     1.910406    -2.396269    -0.793945
H     1.475792    -4.961790    0.095464
O     -2.098976    0.021831    -0.024685
C     -2.953335    0.395987    1.023370
C     -4.229312    0.119389    0.681900
C     -4.205440    -0.458877    -0.637695
C     -2.917240    -0.503978    -1.036235
H     -2.478836    0.859493    1.871051
H     -5.103321    0.310346    1.289625
H     -2.404112    -0.843015    -1.919579
H     -5.058352    -0.790274    -1.213710
O     -0.098842    0.056189    -2.126939
C     -0.024375    -1.053441    -2.981993
C     -0.056578    -0.636150    -4.265469
C     -0.152150    0.800465    -4.246826
C     -0.179776    1.186000    -2.953044
H     0.040143    -2.009616    -2.492542
H     -0.020061    -1.272862    -5.138932
H     -0.252831    2.129837    -2.441157
H     -0.196876    1.458173    -5.103946
