23

Fe     -0.001375    0.006804    0.157114
N     -0.301220    2.251072    0.378481
H     -1.290265    2.503324    0.448544
H     0.128100    2.649618    1.217431
H     0.053620    2.813760    -0.399125
N     2.212527    0.290856    -0.057668
H     2.458809    1.283732    -0.031913
H     2.780578    -0.145235    0.673983
H     2.600330    -0.052544    -0.940692
N     0.299542    -2.222059    -0.221783
H     1.287824    -2.486906    -0.212607
H     -0.142447    -2.845657    0.458613
H     -0.041763    -2.537068    -1.133760
N     -2.210713    -0.251856    -0.124853
H     -2.444327    -1.239235    -0.256905
H     -2.790737    0.053339    0.661573
H     -2.597864    0.224140    -0.944420
N     0.000286    -0.267152    2.392884
H     -0.816158    0.138073    2.858523
H     0.008046    -1.247789    2.683281
H     0.803781    0.154829    2.865875
C     0.000931    0.370763    -2.431044
O     0.002552    0.555237    -3.545192
