31
03/24/2023 16:57, XYZ structure generated by mol3D Class, molSimplify
Fe     0.072319    -0.002436    0.018487
N     -0.463202    2.196909    -0.466365
H     -1.253746    2.141974    -1.114732
H     0.285239    2.684584    -0.963144
S     -0.936994    3.126417    0.967737
H     -1.386482    4.259001    0.379308
N     2.331174    0.296263    -0.294644
H     2.484687    1.305001    -0.358239
H     2.612966    -0.097696    -1.196630
S     3.354382    -0.372364    0.996842
H     4.549242    0.137502    0.619751
N     0.462293    -2.250403    0.255942
H     -0.456176    -2.699305    0.275693
H     0.892857    -2.432881    1.166870
S     1.441121    -2.973885    -1.039851
H     1.334470    -4.277464    -0.694585
N     -2.178300    -0.105015    0.519325
H     -2.344786    0.717038    1.107867
H     -2.415708    -0.921453    1.086957
S     -3.237022    -0.033870    -0.901817
H     -4.437165    0.113469    -0.294603
N     0.383380    0.330012    2.279605
H     0.040809    1.244192    2.583783
H     1.397030    0.331722    2.434276
S     -0.379675    -0.950296    3.236405
H     0.021460    -0.593486    4.478799
N     -0.211238    -0.359390    -2.252347
H     -1.194406    -0.261001    -2.515285
H     0.044230    -1.334703    -2.437864
S     0.784378    0.730024    -3.231179
H     0.493963    0.272175    -4.471308
