19

Fe     -0.081035    -0.004784    -0.125443
S     0.587031    2.536631    -0.159077
H     1.132935    2.958578    1.010497
O     1.999023    2.409555    -1.083807
O     2.882226    1.383899    -0.588255
S     2.332575    -0.143529    -1.203431
H     2.964617    -0.829049    -0.220543
S     -0.556699    -2.588594    0.126900
H     0.476171    -3.463931    0.240089
O     -1.037631    -2.491666    1.732278
O     0.029696    -2.036656    2.625336
S     0.271155    -0.352069    2.494452
H     1.620118    -0.427472    2.359590
S     -2.732803    0.291890    0.325946
H     -3.116278    1.586632    0.482491
O     -3.298434    0.006539    -1.210680
O     -2.629014    0.887801    -2.225008
S     -1.092382    0.368001    -2.576035
H     -1.369931    -0.825621    -3.164346
