29

Fe     -0.000542    -0.000485    0.054032
C     0.199515    1.915479    0.006777
O     0.308642    3.038656    -0.031782
C     1.913181    -0.218906    0.047160
O     3.034957    -0.348686    0.052481
C     -0.201602    -1.918522    0.004430
O     -0.310326    -3.041664    -0.036488
C     -1.913973    0.219052    0.048858
O     -3.035504    0.350944    0.054995
O     -0.000224    0.000334    -2.043009
C     0.774240    -0.820007    -2.888268
C     0.495179    -0.524696    -4.173290
C     -0.494301    0.522510    -4.174633
C     -0.773866    0.819501    -2.890163
H     1.431970    -1.524954    -2.404467
H     0.939370    -0.994928    -5.040537
H     -1.430830    1.525662    -2.407605
H     -0.938986    0.991135    -5.042695
C     -0.000104    0.001357    4.882805
C     0.899508    0.794726    4.169006
C     0.872389    0.769714    2.780577
N     0.000569    0.000150    2.081146
C     -0.870232    -0.769681    2.781010
C     -0.896870    -0.794954    4.169054
H     -0.003090    0.005559    5.968530
H     1.619927    1.431209    4.672933
H     1.566656    1.383308    2.216818
H     -1.566927    -1.379413    2.217063
H     -1.616230    -1.431909    4.672749
