29

Fe     -0.000115    0.000116    -0.004922
N     -0.199697    2.032350    0.362010
H     -1.163727    2.301209    0.567871
H     0.347807    2.352276    1.163679
H     0.076777    2.611319    -0.433688
N     2.044718    0.241457    -0.255878
H     2.346449    1.211784    -0.146739
H     2.602293    -0.293241    0.413638
H     2.360947    -0.032885    -1.188302
N     0.200234    -2.032767    -0.368422
H     1.167856    -2.304795    -0.551873
H     -0.096628    -2.611240    0.420269
H     -0.329935    -2.350538    -1.182535
N     -2.045117    -0.241198    0.242801
H     -2.351325    -1.206284    0.103718
H     -2.357911    0.005415    1.184092
H     -2.602153    0.315993    -0.408590
C     0.452956    -0.490188    3.073772
N     0.285776    -0.312168    1.939370
C     0.662553    -0.713715    4.499339
H     0.656966    0.242592    5.033080
H     1.626468    -1.206923    4.663739
H     -0.134591    -1.348936    4.899992
C     -0.453115    0.490369    -3.083717
N     -0.285841    0.312300    -1.949340
C     -0.662612    0.713918    -4.509297
H     -0.657149    -0.242397    -5.043029
H     0.134649    1.349021    -4.909906
H     -1.626459    1.207237    -4.673767
