34

Fe     0.064524    -0.076275    0.142737
C     0.429056    2.115214    -0.213424
N     0.632530    3.248840    -0.368448
C     0.881650    4.645477    -0.555027
H     1.873720    4.776110    -0.993988
H     0.835087    5.149235    0.413396
H     0.122835    5.057228    -1.224779
C     2.268043    -0.420688    0.397887
N     3.409329    -0.592581    0.531767
C     4.814099    -0.810615    0.692848
H     5.172363    -1.443996    -0.122273
H     4.991297    -1.302692    1.652147
H     5.329912    0.152326    0.669180
C     -0.278760    -2.288747    0.337241
N     -0.461885    -3.432160    0.429917
C     -0.681816    -4.841700    0.537846
H     -1.635766    -5.090786    0.066921
H     -0.704600    -5.119977    1.594114
H     0.130287    -5.368448    0.030903
C     -2.122685    0.238096    -0.259502
N     -3.263113    0.381471    -0.431871
C     -4.668243    0.558446    -0.635979
H     -4.933251    1.594876    -0.413318
H     -5.213150    -0.114779    0.030137
H     -4.911934    0.329195    -1.676152
C     -0.229957    0.252990    2.320561
N     -0.374370    0.413023    3.462681
C     -0.550349    0.608759    4.868473
H     -0.163302    -0.263568    5.400766
H     -1.614709    0.730262    5.083318
H     -0.003991    1.503023    5.177438
S     0.524942    -0.614478    -2.532672
H     -0.666656    -0.496834    -3.154372
H     1.021361    0.520153    -3.067968
