27

Fe     -0.054701    -0.077755    -0.013605
P     -0.454973    2.215801    0.271464
H     -1.419567    2.623819    1.216968
H     0.607647    3.060263    0.656092
H     -0.917295    2.923599    -0.855930
P     2.229424    0.267338    0.362792
H     2.611434    1.202004    1.347780
H     3.027833    -0.823985    0.764406
H     3.001427    0.737413    -0.718384
P     0.306922    -2.360038    -0.399592
H     1.629790    -2.838786    -0.499675
H     -0.209731    -3.305937    0.511084
H     -0.219058    -2.882138    -1.598370
P     -2.342168    -0.385477    -0.436784
H     -2.731062    -1.510009    -1.194021
H     -3.244825    -0.513004    0.639944
H     -3.003645    0.620075    -1.171470
P     -0.398868    -0.463357    2.288621
H     0.705544    -0.461359    3.166767
H     -1.240780    0.421866    2.994375
H     -0.985638    -1.685829    2.677743
C     0.216825    0.220993    -1.879739
N     0.385374    0.401377    -3.018162
C     0.597856    0.624989    -4.419696
H     -0.079591    -0.014628    -4.990771
H     1.634173    0.382408    -4.667541
H     0.398078    1.674639    -4.648963
