23

Fe     -0.017704    0.006196    0.075984
N     -0.217483    2.076853    0.370992
H     -1.134445    2.368091    0.712929
H     0.467604    2.576028    0.941163
H     -0.151756    2.449791    -0.578067
N     2.042722    0.252326    -0.253036
H     2.415227    1.164630    0.015213
H     2.696198    -0.438503    0.121369
H     2.117240    0.217837    -1.271794
N     0.159643    -2.035288    -0.354309
H     1.124478    -2.309773    -0.544362
H     -0.207564    -2.734035    0.295431
H     -0.332005    -2.161831    -1.241250
N     -2.092320    -0.214973    0.273446
H     -2.390019    -1.191476    0.286359
H     -2.575409    0.232189    1.055248
H     -2.482165    0.180531    -0.584577
N     0.290800    -0.274282    2.163374
H     -0.442533    0.137137    2.742750
H     0.334405    -1.258442    2.431317
H     1.165554    0.137778    2.491824
C     -0.299225    0.308723    -1.822635
N     -0.472201    0.511959    -2.963178
