12

Fe     0.000092    0.000094    -0.028736
C     0.000108    1.860426    -0.015243
O     0.000099    2.997944    -0.027807
C     1.860425    0.000103    -0.015242
O     2.997943    0.000089    -0.027807
C     0.000114    -1.860257    -0.014569
O     0.000152    -2.997777    -0.026802
C     -1.860259    0.000121    -0.014570
O     -2.997779    0.000162    -0.026803
I     0.000266    0.000272    2.653050
N     -0.000762    -0.000772    -3.107564
C     -0.000401    -0.000405    -1.941214
