19

Fe     0.087203    -0.078936    0.098659
S     -0.300895    2.501511    -0.334099
H     -1.423124    2.658769    -1.067780
H     0.534649    2.888571    -1.322059
S     2.684677    0.299374    0.508721
H     3.301946    0.352136    -0.691489
H     2.881601    1.604065    0.795458
S     0.490963    -2.672058    0.518985
H     1.474182    -2.804633    1.434984
H     -0.496195    -3.098051    1.336090
S     -2.523649    -0.771487    0.012132
H     -3.015310    -0.526168    -1.220139
H     -3.240591    0.199793    0.616109
S     -0.377702    0.289018    2.704555
H     0.743577    -0.079354    3.361008
H     -0.211577    1.610188    2.933730
S     0.556959    -0.490111    -2.490750
H     -0.585437    -0.239532    -3.165038
H     0.496077    -1.828635    -2.664190
