40

Fe     0.127932    -0.114570    0.032370
N     -0.179865    2.058696    -0.354761
C     -0.290311    3.198783    -0.528695
C     -0.429632    4.633722    -0.744041
H     -1.450386    4.950718    -0.507762
H     0.270784    5.177086    -0.101750
H     -0.215694    4.876957    -1.789811
N     2.305218    0.241272    0.328317
C     3.430526    0.463931    0.491320
C     4.845751    0.743662    0.699794
H     5.212439    1.418381    -0.080455
H     4.991167    1.218070    1.675708
H     5.421239    -0.186855    0.665375
N     0.455671    -2.287082    0.349425
C     0.581207    -3.425448    0.525217
C     0.739478    -4.856994    0.748491
H     1.772058    -5.156834    0.543169
H     0.496953    -5.100006    1.788099
H     0.067793    -5.414865    0.088132
N     -2.034779    -0.480047    -0.348251
C     -3.156476    -0.715720    -0.517430
C     -4.568444    -1.010702    -0.726747
H     -5.096236    -0.998210    0.232387
H     -5.014413    -0.261610    -1.388795
H     -4.680865    -2.000386    -1.180828
C     -0.727501    0.593477    4.886818
C     -1.548207    1.183663    3.924868
C     -1.273778    0.959346    2.580694
N     -0.244812    0.193150    2.163772
C     0.544464    -0.374337    3.099031
C     0.338831    -0.200389    4.462807
H     -0.915100    0.748884    5.944879
H     -2.388567    1.808461    4.208185
H     -1.888943    1.400569    1.803768
H     1.363323    -0.984371    2.732900
H     1.002759    -0.678802    5.174979
N     0.488080    -0.368934    -2.124327
H     -0.278140    0.003119    -2.687097
H     0.585775    -1.354856    -2.371176
H     1.340829    0.099066    -2.434705
