30

Fe     -0.004442    -0.000193    0.246848
N     0.348237    2.119165    -0.060811
C     0.539640    3.247156    -0.242873
C     0.781131    4.663639    -0.472018
H     -0.141089    5.148988    -0.808288
H     1.118029    5.138190    0.455678
H     1.552156    4.789516    -1.239499
N     2.112537    -0.329815    0.605741
C     3.245707    -0.523383    0.751324
C     4.669757    -0.767137    0.932444
H     5.243779    -0.168034    0.217871
H     4.969530    -0.496140    1.950048
H     4.888770    -1.827077    0.766028
N     -0.329171    -2.125107    0.060005
C     -0.506497    -3.266836    -0.022496
C     -0.728891    -4.700765    -0.126003
H     0.064489    -5.157706    -0.726891
H     -0.726116    -5.149418    0.873047
H     -1.695420    -4.893836    -0.603190
N     -2.136335    0.331595    -0.075404
C     -3.262885    0.491943    -0.294350
C     -4.678354    0.693177    -0.570942
H     -4.876441    0.529674    -1.635416
H     -5.277156    -0.010406    0.016783
H     -4.967891    1.715576    -0.306680
O     -0.336811    0.163732    2.325696
H     -1.182902    0.421438    2.725997
H     0.359692    0.279075    2.992139
C     0.382992    -0.130435    -2.153103
O     0.573851    -0.186440    -3.265341
