43

Fe     -0.006770    -0.001062    0.027287
N     -0.044775    2.288516    -0.331928
H     -0.701523    2.664760    0.354273
H     -0.522031    2.444408    -1.222132
C     1.176552    3.144768    -0.310676
H     1.685020    3.024916    0.648886
H     1.852839    2.835219    -1.110936
H     0.944251    4.204658    -0.450955
N     2.275991    -0.007020    -0.271045
H     2.627480    0.556955    0.504521
H     2.490344    0.557009    -1.095178
C     3.096027    -1.250552    -0.344142
H     2.954174    -1.832518    0.569052
H     2.778799    -1.850404    -1.201686
H     4.163317    -1.036873    -0.454575
N     0.031891    -2.290352    0.388138
H     0.511867    -2.444903    1.277096
H     0.686461    -2.667678    -0.299547
C     -1.189527    -3.146626    0.371877
H     -1.862850    -2.836717    1.174513
H     -1.701527    -3.027324    -0.585860
H     -0.956676    -4.206437    0.511863
N     -2.289487    0.005435    0.325898
H     -2.505085    -0.561634    1.147602
H     -2.640967    -0.555032    -0.452211
C     -3.108468    1.249441    0.403006
H     -2.790754    1.846454    1.262365
H     -2.966399    1.834111    -0.508436
H     -4.175917    1.036269    0.512932
N     0.095495    0.334690    2.306951
H     -0.422122    -0.422550    2.758480
H     -0.442910    1.172439    2.537408
C     1.420313    0.445296    2.985724
H     2.013706    -0.446353    2.769788
H     1.946809    1.325938    2.609779
H     1.322226    0.543452    4.070841
N     -0.109181    -0.338434    -2.252150
H     0.433673    -1.173380    -2.482344
H     0.403527    0.421303    -2.705090
C     -1.434035    -0.457198    -2.929633
H     -1.956944    -1.338014    -2.549146
H     -2.030470    0.433359    -2.717623
H     -1.336180    -0.560076    -4.014329
