57

Fe     0.033267    0.019143    -0.002938
C     0.022706    -0.216531    2.261387
N     -0.006636    -0.280608    3.423749
C     -0.048985    -0.350440    4.852252
H     0.487683    -1.241780    5.186063
H     -1.090452    -0.402758    5.178764
H     0.423860    0.542265    5.268810
C     0.016080    0.318904    -2.254151
N     -0.002043    0.465526    -3.409030
C     -0.028139    0.642086    -4.828116
H     -0.786110    -0.016827    -5.258672
H     0.953275    0.393750    -5.238742
H     -0.271237    1.682594    -5.056305
C     0.039581    5.018072    0.619094
C     0.996447    4.223643    1.252262
C     0.955397    2.846454    1.063518
N     0.028230    2.240815    0.293860
C     -0.894072    3.015009    -0.313286
C     -0.923123    4.399184    -0.179566
H     0.043109    6.096477    0.745760
H     1.765840    4.659309    1.880844
H     1.685770    2.197015    1.534049
H     -1.628808    2.494948    -0.919027
H     -1.685672    4.975756    -0.692527
C     5.111854    -0.141341    -0.045202
C     4.374897    -0.970715    0.801302
C     2.986330    -0.884723    0.780218
N     2.313773    -0.036404    -0.022925
C     3.035262    0.759127    -0.838254
C     4.426051    0.741116    -0.880664
H     6.196874    -0.181050    -0.052819
H     4.864344    -1.673240    1.467794
H     2.379986    -1.517975    1.420451
H     2.468492    1.434893    -1.471670
H     4.956775    1.405653    -1.554307
C     -0.075193    -4.986555    -0.549736
C     -0.928920    -4.342127    0.346407
C     -0.866196    -2.957099    0.452631
N     -0.011917    -2.205678    -0.271396
C     0.808315    -2.834991    -1.136777
C     0.807539    -4.215541    -1.307557
H     -0.096038    -6.067225    -0.653842
H     -1.634092    -4.899919    0.953572
H     -1.517040    -2.417890    1.132931
H     1.485882    -2.202582    -1.701254
H     1.487481    -4.673695    -2.017803
C     -5.070657    -0.126485    -0.029643
C     -4.330290    -0.684057    -1.072602
C     -2.942101    -0.603820    -1.024632
N     -2.272232    -0.012854    -0.015224
C     -2.997169    0.522765    0.986894
C     -4.387994    0.490005    1.019855
H     -6.155482    -0.171599    -0.034752
H     -4.816357    -1.173254    -1.910475
H     -2.333837    -1.031851    -1.815115
H     -2.433579    0.997000    1.784675
H     -4.920700    0.939034    1.851637
