15

Fe     -0.185933    -0.003505    0.082273
S     0.091832    2.703220    0.051847
H     0.895417    2.872937    1.122036
H     1.090941    2.829210    -0.844824
S     2.546113    -0.249001    0.030972
H     2.777016    -1.052839    1.089075
H     2.711071    -1.225026    -0.884167
S     -0.347884    -2.756891    0.060265
H     -1.131342    -3.059163    1.115810
H     -1.291545    -3.031873    -0.862788
S     -2.872176    0.465680    0.104565
H     -3.294751    -0.352953    1.089406
H     -3.315243    -0.328076    -0.891701
I     -0.171596    -0.040397    2.816999
I     -0.202669    -0.043255    -2.651671
