20

Fe     -0.016337    -0.027087    0.070945
S     0.424034    2.608608    -0.119539
H     -0.793189    3.146314    -0.353372
H     0.886931    2.850090    -1.364559
S     2.577958    -0.409111    0.505572
H     2.959448    0.424031    1.497255
H     3.278216    0.238850    -0.449793
S     -0.487207    -2.625682    0.502914
H     -0.725573    -3.189868    -0.701337
H     0.730801    -3.191302    0.650629
S     -2.605633    0.350760    -0.407989
H     -2.937689    -0.355935    -1.510390
H     -3.290044    -0.446618    0.440221
P     -0.462314    0.376704    2.680280
H     0.596701    0.173237    3.589512
H     -1.450949    -0.416404    3.299119
H     -0.884879    1.654898    3.100718
S     0.257664    -0.594241    -2.542806
H     0.455308    0.530846    -3.261667
H     1.486743    -1.098100    -2.783722
