17

Fe     -0.025672    -0.029244    -0.007916
C     -0.427859    2.322200    0.335033
O     -0.658954    3.413746    0.487053
C     2.335175    0.290573    0.376693
O     3.442250    0.395135    0.554011
C     0.349963    -2.377899    -0.353918
O     0.565737    -3.471884    -0.509790
C     -2.363057    -0.409257    -0.399616
O     -3.463421    -0.557708    -0.585569
N     -0.285547    -0.314378    2.162124
H     -1.240481    -0.140045    2.490629
H     -0.064696    -1.262196    2.483408
H     0.304868    0.298407    2.734542
N     0.331904    0.401411    -2.142412
H     -0.495258    0.745863    -2.639063
H     1.053108    1.111263    -2.307808
H     0.642023    -0.415746    -2.677419
