23

Fe     -0.021483    0.015222    0.074044
N     -0.204211    2.302816    0.373493
H     -1.078794    2.652855    0.766170
H     0.540581    2.841822    0.817254
H     -0.215644    2.578146    -0.611358
N     2.247295    0.251743    -0.331741
H     2.694215    1.122720    -0.042870
H     2.898372    -0.496081    -0.089039
H     2.211490    0.283879    -1.353424
N     0.153180    -2.257826    -0.337667
H     1.030962    -2.739748    -0.139009
H     -0.590595    -2.880074    -0.018802
H     0.074223    -2.224095    -1.357078
N     -2.305906    -0.214730    0.370974
H     -2.673658    -1.102088    0.716130
H     -2.827585    0.516331    0.855930
H     -2.583119    -0.155913    -0.611743
N     0.326080    -0.266569    2.283914
H     -0.429836    0.114898    2.853369
H     0.399349    -1.255618    2.524198
H     1.187052    0.174225    2.609277
C     -0.343921    0.299070    -1.996058
N     -0.488005    0.439060    -3.148512
