20

Fe     0.037940    -0.051097    -0.202926
N     0.499177    2.151755    -0.518809
H     -0.273832    2.788216    -0.323171
H     0.617708    2.161639    -1.534604
H     1.332006    2.590939    -0.124878
N     2.225165    -0.460260    0.117316
H     2.489328    -1.210922    0.755962
H     2.784629    0.350456    0.382363
H     2.551144    -0.738666    -0.810526
N     -0.413937    -2.250663    0.226063
H     -1.171203    -2.529469    0.850869
H     0.384758    -2.834731    0.474737
H     -0.688782    -2.541718    -0.715207
N     -2.156234    0.460365    0.149255
H     -2.451048    0.559322    -0.825039
H     -2.451057    1.311346    0.629972
H     -2.725412    -0.294168    0.533951
C     -0.016278    0.358701    2.486594
O     -0.349702    0.518504    3.557275
F     -0.224354    -0.339536    -1.952160
