31

Fe     0.210986    0.226874    0.372742
S     -0.023849    2.750787    0.050754
N     -1.693950    2.952223    0.775910
H     -1.649208    2.647077    1.762925
H     -1.996194    3.931377    0.732606
H     -2.378939    2.344234    0.302379
S     2.664889    -0.037321    0.817535
N     3.532512    0.226183    -0.795703
H     2.846808    0.163660    -1.572483
H     3.969653    1.153207    -0.799566
H     4.276887    -0.463533    -0.938461
S     -0.174536    -2.311038    0.662253
N     1.481518    -3.157120    0.867675
H     2.206872    -2.412840    0.850264
H     1.537660    -3.662744    1.756476
H     1.648531    -3.827556    0.111901
S     -2.343773    -0.270306    0.084267
N     -2.475366    -1.132596    -1.533582
H     -3.330848    -0.867865    -2.032026
H     -1.637984    -0.901827    -2.105063
H     -2.489330    -2.146870    -1.381584
S     -0.253951    0.711805    2.804225
N     -1.171000    -0.777171    3.389030
H     -2.185153    -0.636047    3.410354
H     -0.956363    -1.564166    2.741594
H     -0.862556    -1.014973    4.337116
S     0.566906    -0.017630    -2.371828
N     0.222542    1.684242    -2.989773
H     1.048492    2.099342    -3.432237
H     -0.521141    1.674967    -3.694468
H     -0.065791    2.280442    -2.178049
