38

Fe     0.001377    0.001950    0.040695
C     -0.012352    -0.012424    -1.798618
O     -0.024304    -0.025499    -2.935766
C     0.153161    1.934333    0.033639
N     0.251037    3.091084    0.006916
C     0.378941    4.516683    -0.034007
H     1.291097    4.776807    -0.576297
H     0.432540    4.900305    0.987682
H     -0.489119    4.939528    -0.545569
C     1.938016    -0.103344    0.034221
N     3.098265    -0.141758    0.008695
C     4.529432    -0.175927    -0.030831
H     4.850097    -1.013476    -0.654638
H     4.912417    -0.300960    0.984717
H     4.895876    0.762909    -0.452659
C     -0.150665    -1.931750    0.050549
N     -0.249854    -3.088317    0.020758
C     -0.379547    -4.513339    -0.035803
H     -1.292113    -4.765699    -0.581047
H     -0.433452    -4.909635    0.980907
H     0.487753    -4.930878    -0.552920
C     -1.936008    0.108168    0.045253
N     -3.096104    0.145687    0.011460
C     -4.526701    0.175809    -0.051352
H     -4.859736    -0.497557    -0.844917
H     -4.854810    1.194746    -0.269708
H     -4.934446    -0.149419    0.908651
C     -0.007536    -0.007709    4.928406
C     -0.806990    0.884108    4.214338
C     -0.769179    0.862670    2.825024
N     0.010615    0.010544    2.124733
C     0.785470    -0.847085    2.823906
C     0.804702    -0.886963    4.213109
H     -0.016976    -0.016892    6.013837
H     -1.455883    1.591328    4.720028
H     -1.379994    1.546582    2.248609
H     1.407125    -1.521168    2.247410
H     1.447270    -1.600201    4.718329
