37

Fe     0.000645    0.002489    0.034513
C     0.002195    1.937358    0.021975
N     0.004312    3.099256    0.008729
C     0.008658    4.529472    -0.005858
H     0.844888    4.880403    -0.615323
H     0.117894    4.898379    1.016836
H     -0.932719    4.888398    -0.428766
C     1.935552    0.000654    0.021998
N     3.097465    -0.001541    0.010382
C     4.527716    -0.005723    -0.000840
H     4.880229    -0.841230    -0.610380
H     4.894097    -0.116086    1.022646
H     4.887572    0.936183    -0.421767
C     -0.001146    -1.932426    0.019890
N     -0.003685    -3.094312    0.005900
C     -0.008714    -4.524530    -0.008818
H     -0.844894    -4.875005    -0.618613
H     -0.118562    -4.893410    1.013827
H     0.932654    -4.883896    -0.431358
C     -1.934252    0.002732    0.022075
N     -3.096168    0.001561    0.010482
C     -4.526370    -0.001472    -0.001066
H     -4.891041    0.987568    0.286429
H     -4.889942    -0.749396    0.707710
H     -4.877096    -0.245818    -1.006639
C     0.000584    0.001084    1.934528
N     0.000128    -0.000696    3.097043
C     -0.001728    -0.004705    4.527254
H     0.604606    -0.840186    4.885470
H     -1.028258    -0.114278    4.885253
H     0.416921    0.936875    4.890758
C     0.000623    0.004017    -3.128457
N     0.000631    0.003687    -1.973105
C     0.000463    0.003944    -4.586216
H     1.023534    -0.104564    -4.960373
H     -0.417281    0.944111    -4.960371
H     -0.604981    -0.828039    -4.959937
