57

Fe     0.025907    -0.003538    -0.104714
O     0.234422    0.016128    1.963284
H     0.909332    0.591808    2.358735
H     -0.583374    0.130413    2.475838
O     -0.067810    -0.031992    -2.303472
C     1.011631    -0.051541    -3.186179
C     0.566452    -0.083518    -4.462347
C     -0.869407    -0.092756    -4.405651
C     -1.212870    -0.061760    -3.098126
H     1.986579    -0.037527    -2.731625
H     1.182646    -0.100553    -5.350521
H     -2.149297    -0.067653    -2.569471
H     -1.553337    -0.121225    -5.242427
C     0.155220    4.890800    -0.235549
C     -0.392825    4.214513    0.855689
C     -0.399138    2.824921    0.848980
N     0.110039    2.082057    -0.160175
C     0.642899    2.748655    -1.207529
C     0.679072    4.137750    -1.285080
H     0.170135    5.975780    -0.266736
H     -0.816067    4.750222    1.699170
H     -0.840145    2.275765    1.672335
H     1.054405    2.146287    -2.006478
H     1.114308    4.613081    -2.157644
C     4.912182    -0.338466    0.203910
C     4.174744    -1.335471    -0.433675
C     2.796280    -1.187344    -0.556295
N     2.123294    -0.108388    -0.095293
C     2.854157    0.855545    0.510842
C     4.231257    0.779309    0.685943
H     5.988061    -0.427679    0.319556
H     4.653821    -2.223780    -0.831659
H     2.202822    -1.949863    -1.044030
H     2.309343    1.727857    0.851861
H     4.752950    1.588394    1.186321
C     -0.250626    -4.867504    0.053875
C     0.312661    -4.140673    1.103016
C     0.376721    -2.755338    1.007998
N     -0.088391    -2.066267    -0.059794
C     -0.632146    -2.779265    -1.070435
C     -0.729829    -4.167050    -1.052674
H     -0.312602    -5.950455    0.097746
H     0.703425    -4.634046    1.986694
H     0.807511    -2.161280    1.802216
H     -0.999058    -2.214457    -1.917078
H     -1.177095    -4.679437    -1.897948
C     -4.814076    0.277680    0.551486
C     -4.059914    -0.733323    1.146184
C     -2.690050    -0.783605    0.909152
N     -2.036826    0.113666    0.133474
C     -2.779190    1.098227    -0.425176
C     -4.154393    1.209191    -0.250042
H     -5.887272    0.335789    0.704914
H     -4.521104    -1.484345    1.778908
H     -2.089649    -1.577405    1.337881
H     -2.244139    1.810875    -1.039630
H     -4.692332    2.016321    -0.735996
