55

Fe     0.035659    0.001004    0.014140
O     0.055269    2.225068    -0.001429
C     -1.056697    3.080059    -0.031180
C     -0.638041    4.362179    -0.087462
C     0.803491    4.342708    -0.098181
C     1.189574    3.050279    -0.045870
H     -2.014124    2.587588    0.012335
H     -1.272718    5.237492    -0.116353
H     2.134307    2.532544    -0.041988
H     1.461223    5.199889    -0.141335
O     2.243820    -0.000331    -0.023646
C     3.084472    -0.046819    1.100017
C     4.371300    -0.098769    0.695309
C     4.369682    -0.086598    -0.746353
C     3.082852    -0.029067    -1.147865
H     2.576837    -0.021509    2.050139
H     5.238479    -0.139985    1.340290
H     2.579039    0.001929    -2.099656
H     5.235022    -0.117826    -1.393965
O     0.058477    -2.201881    0.040062
C     1.148507    -3.015448    0.387276
C     0.779229    -4.311777    0.324867
C     -0.605097    -4.345523    -0.078508
C     -1.009895    -3.068270    -0.241395
H     2.055719    -2.488681    0.633750
H     1.411295    -5.163015    0.537418
H     -1.933561    -2.586288    -0.519962
H     -1.214674    -5.226612    -0.223797
O     -2.187090    0.009142    0.014023
C     -3.053467    0.190041    1.102512
C     -4.331578    0.087479    0.681225
C     -4.299110    -0.170738    -0.736422
C     -3.001967    -0.210723    -1.108003
H     -2.574660    0.366615    2.051901
H     -5.213161    0.180028    1.299908
H     -2.475600    -0.356104    -2.036579
H     -5.150029    -0.306358    -1.390425
O     -0.012404    0.022318    2.176204
C     -0.376931    -1.050418    3.009329
C     -0.501771    -0.607885    4.276826
C     -0.208625    0.805693    4.274586
C     0.078987    1.156998    3.004417
H     -0.485321    -2.000872    2.513956
H     -0.770230    -1.211089    5.133140
H     0.358201    2.069612    2.504387
H     -0.213048    1.468561    5.129674
O     0.036524    -0.008652    -2.155325
C     -0.121354    1.105191    -2.998879
C     -0.075043    0.700608    -4.284507
C     0.121494    -0.729126    -4.282245
C     0.186256    -1.127571    -2.995102
H     -0.253870    2.046661    -2.492562
H     -0.167616    1.337831    -5.153224
H     0.322127    -2.067851    -2.487226
H     0.200855    -1.371988    -5.148312
