25

Fe     -0.036638    0.037147    -0.009262
S     0.283318    2.676211    -0.517763
H     -0.576844    3.277492    0.332112
H     1.382476    3.008902    0.192323
S     2.653110    -0.127826    -0.338866
H     3.111455    -1.122483    0.448626
H     2.906503    -0.775393    -1.494747
S     -0.522151    -2.613629    0.348918
H     0.220159    -2.967801    1.419459
H     0.277495    -3.242599    -0.538548
S     -2.661815    0.547663    0.397182
H     -3.059131    -0.340217    1.332539
H     -3.316460    -0.065561    -0.610615
C     0.297333    0.337040    2.114775
N     0.466073    0.513686    3.250080
C     0.673540    0.740751    4.650819
H     0.996881    -0.193407    5.116743
H     -0.264865    1.077317    5.098233
H     1.444334    1.505531    4.774214
C     -0.376077    -0.244056    -2.132031
N     -0.561090    -0.327323    -3.275076
C     -0.791499    -0.410652    -4.687637
H     -1.625947    -1.091889    -4.871391
H     0.112664    -0.784507    -5.174034
H     -1.032736    0.587228    -5.062672
