37

Fe     -0.179671    -0.190496    -0.003933
P     -0.647713    2.392928    0.394801
H     -0.190234    2.776342    1.690147
P     0.497478    3.983350    -0.522477
H     0.266293    3.981938    -1.907240
H     0.158588    5.303554    -0.160088
H     1.909246    4.032031    -0.460997
P     2.348458    0.283937    -0.404583
H     2.875321    0.888249    0.775556
P     3.643085    -1.445099    -0.158044
H     3.537264    -2.292210    -1.270342
H     5.023630    -1.165561    -0.101379
H     3.476475    -2.344731    0.916518
P     0.197905    -2.810021    -0.294518
H     -0.381681    -3.236615    -1.523174
P     -1.022934    -4.180562    0.852136
H     -0.761716    -3.999575    2.218640
H     -2.431618    -4.126140    0.789369
H     -0.771857    -5.552868    0.651004
P     -2.728351    -0.758184    0.335837
H     -3.177875    -1.285674    -0.908186
P     -4.148991    0.884069    0.227486
H     -4.094266    1.641834    1.406573
H     -4.056606    1.875520    -0.772686
H     -5.505731    0.510594    0.151659
P     -0.124065    -0.728730    2.684281
H     -1.276874    -0.067804    3.197944
P     1.154432    0.496771    3.911707
H     2.482966    0.048723    3.834665
H     1.308956    1.885604    3.681669
H     0.902353    0.470859    5.297938
P     -0.905914    -0.095181    -2.590068
H     -1.441255    1.222594    -2.722249
P     0.675799    0.363276    -4.005876
H     1.438535    -0.793194    -4.233631
H     0.262551    0.714282    -5.307303
H     1.683217    1.324570    -3.757252
