31

Fe     0.099730    -0.105820    0.072436
N     0.273031    2.243022    0.054777
H     -0.132711    2.533180    -0.844016
H     1.169638    2.724517    0.171611
O     -0.604989    2.680877    1.103129
H     -0.647498    3.659385    1.092854
N     2.270659    -0.443907    0.621529
H     2.473961    0.207369    1.388830
H     3.018859    -0.379383    -0.074352
O     2.272086    -1.771740    1.158784
H     3.156820    -1.947255    1.538676
N     -0.253129    -2.336313    -0.313140
H     -0.750147    -2.864162    0.410061
H     0.645398    -2.802962    -0.466605
O     -1.020775    -2.406018    -1.520024
H     -1.165647    -3.346526    -1.749367
N     -2.148911    0.222510    -0.105569
H     -2.310834    1.230986    -0.043372
H     -2.806884    -0.183645    0.567944
O     -2.674332    -0.113179    -1.409219
H     -2.379404    -1.041146    -1.543918
N     -0.007531    -0.190407    2.293590
H     0.553682    -0.992159    2.597022
H     -0.855581    -0.211531    2.869779
O     0.779277    0.926630    2.756941
H     0.285078    1.709072    2.418680
N     0.246615    0.247421    -2.125974
H     0.025687    -0.552823    -2.729414
H     1.156710    0.576376    -2.457804
O     -0.625855    1.330819    -2.513906
H     -1.529561    0.945411    -2.398842
