35

Fe     -0.071741    -0.062230    -0.006597
C     0.249530    2.176984    -0.373128
N     0.414192    3.314430    -0.544470
C     0.617151    4.715718    -0.750991
H     1.381330    4.856818    -1.519033
H     0.944784    5.170603    0.186831
H     -0.322742    5.168858    -1.075155
C     2.126261    -0.440496    -0.352303
N     3.264025    -0.628248    -0.505321
C     4.664210    -0.858876    -0.686804
H     4.808866    -1.837666    -1.150501
H     5.161523    -0.832315    0.285681
H     5.074566    -0.080047    -1.334101
C     -0.399382    -2.303915    0.353937
N     -0.560585    -3.434266    0.570128
C     -0.757698    -4.825510    0.840042
H     -1.730696    -5.131701    0.448321
H     -0.725033    -4.987323    1.920150
H     0.035205    -5.399483    0.354536
C     -2.282363    0.290076    0.298152
N     -3.417241    0.470219    0.479558
C     -4.811839    0.692592    0.708470
H     -4.947251    1.676666    1.163690
H     -5.191888    -0.080634    1.380488
H     -5.344384    0.649074    -0.244569
C     0.292499    0.251058    2.188167
N     0.476616    0.410144    3.325460
C     0.701886    0.606126    4.723950
H     1.356872    -0.185323    5.096137
H     -0.254914    0.573703    5.250494
H     1.175501    1.578857    4.877311
N     -0.434171    -0.332532    -2.221846
H     -1.269481    0.146415    -2.561508
H     0.343754    -0.005643    -2.796604
H     -0.560123    -1.319760    -2.451921
