19

Fe     -0.018575    -0.000459    -0.081949
S     -0.069550    2.346758    0.250524
H     -0.599907    2.558727    1.481115
O     1.551687    2.506630    0.859159
O     2.409897    2.029320    -0.183394
S     2.352396    0.335447    -0.297221
H     2.943742    0.016912    0.884737
S     0.331843    -2.338833    -0.338121
H     -0.805836    -2.820299    -0.899910
O     -0.187193    -2.830120    1.263681
O     0.551313    -2.083002    2.189382
S     -0.115366    -0.453423    2.209372
H     1.035112    0.063943    2.705967
S     -2.384067    -0.358204    -0.228833
H     -3.081599    0.799951    -0.085575
O     -2.527999    -0.559873    -1.884585
O     -1.871979    0.551204    -2.605470
S     -0.209675    0.459514    -2.460050
H     0.025088    -0.670469    -3.179135
