59

Fe     0.051810    -0.005137    -0.005246
O     0.091871    2.261636    -0.010767
C     -0.998444    3.134245    0.041157
C     -0.560730    4.410748    -0.030140
C     0.875342    4.363054    -0.133283
C     1.233361    3.060371    -0.120914
H     -1.962683    2.660214    0.130193
H     -1.179118    5.297293    -0.012121
H     2.165166    2.522685    -0.178408
H     1.547852    5.206184    -0.207571
O     2.396212    -0.003209    0.076575
C     3.167581    -0.214602    1.220973
C     4.480743    -0.162721    0.904126
C     4.564940    0.097984    -0.508896
C     3.297913    0.186173    -0.972168
H     2.611251    -0.378220    2.129097
H     5.306210    -0.291596    1.590198
H     2.856912    0.360695    -1.939634
H     5.467172    0.204264    -1.095373
O     0.089864    -2.266945    0.000283
C     1.226350    -3.057742    0.192667
C     0.871697    -4.361102    0.225078
C     -0.556491    -4.418237    0.046457
C     -0.993421    -3.146076    -0.085529
H     2.152579    -2.514901    0.283960
H     1.542118    -5.198739    0.358217
H     -1.952120    -2.680468    -0.249068
H     -1.170368    -5.307949    0.020090
O     -2.340988    -0.014462    -0.070378
C     -3.244641    0.393397    0.910398
C     -4.511893    0.233199    0.465827
C     -4.426082    -0.304939    -0.865608
C     -3.111109    -0.437441    -1.152855
H     -2.812031    0.738582    1.834867
H     -5.413602    0.465886    1.015499
H     -2.557588    -0.776607    -2.012941
H     -5.250669    -0.556017    -1.518522
C     -0.423993    0.066464    4.924638
C     -0.722373    -1.088089    4.199229
C     -0.570992    -1.076661    2.818066
N     -0.147306    0.015690    2.136414
C     0.140198    1.133048    2.849882
C     0.016078    1.195806    4.231965
H     -0.531738    0.086831    6.004981
H     -1.068156    -1.990948    4.690989
H     -0.799318    -1.955780    2.229066
H     0.482275    1.990167    2.284616
H     0.260407    2.117445    4.749574
C     0.011645    0.000275    -4.954716
C     -0.392776    1.124965    -4.234525
C     -0.346980    1.089273    -2.846841
N     0.071507    0.001264    -2.155197
C     0.462551    -1.087389    -2.862913
C     0.449003    -1.123834    -4.251679
H     -0.014111    -0.000302    -6.039934
H     -0.741673    2.021782    -4.734834
H     -0.657491    1.944546    -2.260541
H     0.793551    -1.942585    -2.286949
H     0.771563    -2.021745    -4.767594
