49

Fe     0.032408    0.020027    -0.174855
O     -0.136469    0.012353    1.857874
H     0.606549    0.083343    2.482161
H     -0.934683    0.387926    2.272840
O     -0.047630    2.087044    -0.184816
C     0.241989    2.961331    0.874774
C     -0.145533    4.210822    0.542774
C     -0.714992    4.147802    -0.779712
C     -0.641919    2.864584    -1.190037
H     0.737403    2.521171    1.722349
H     -0.032985    5.092859    1.158489
H     -0.928474    2.333420    -2.081475
H     -1.124752    4.971945    -1.347553
O     2.060269    0.069226    0.007437
C     2.865539    -0.976103    0.492015
C     4.131930    -0.533577    0.633047
C     4.155539    0.848827    0.229181
C     2.901690    1.186341    -0.137528
H     2.363663    -1.916574    0.640526
H     4.972118    -1.120191    0.978466
H     2.431028    2.081058    -0.506518
H     5.016961    1.502455    0.215969
O     0.088696    -2.023793    -0.200157
C     -0.230126    -2.880707    0.865188
C     -0.126684    -4.160903    0.450570
C     0.272810    -4.136332    -0.934362
C     0.394521    -2.842455    -1.299001
H     -0.500975    -2.385937    1.781192
H     -0.310651    -5.039223    1.054317
H     0.682398    -2.326686    -2.198662
H     0.450224    -4.991806    -1.572320
O     -2.045556    -0.051734    -0.140445
C     -2.824280    0.857469    0.597163
C     -4.017751    0.292858    0.884115
C     -4.015589    -1.032698    0.320290
C     -2.821289    -1.212652    -0.281425
H     -2.398234    1.840299    0.718323
H     -4.830735    0.764740    1.419326
H     -2.354690    -2.024314    -0.813828
H     -4.821379    -1.752760    0.359327
O     0.116744    0.054552    -2.229684
C     -0.963406    -0.098079    -3.115070
C     -0.506492    -0.072322    -4.384798
C     0.922245    0.101939    -4.325834
C     1.268967    0.175759    -3.023561
H     -1.927641    -0.204223    -2.647993
H     -1.111296    -0.163747    -5.276535
H     2.197727    0.307620    -2.495857
H     1.602670    0.169004    -5.163946
