58

Fe     0.054949    0.093847    0.191653
C     0.285526    0.261604    -2.303978
O     0.639314    0.380418    -3.372441
C     -0.134698    5.183357    0.336821
C     0.396588    4.434862    1.387764
C     0.419099    3.048038    1.282623
N     -0.050968    2.377999    0.206551
C     -0.553292    3.117531    -0.804767
C     -0.616894    4.506547    -0.783866
H     -0.170150    6.267361    0.388283
H     0.789671    4.912345    2.279327
H     0.830510    2.439507    2.078931
H     -0.915807    2.573770    -1.669537
H     -1.034640    5.040372    -1.631002
C     5.041450    0.044693    -0.527464
C     4.339997    -1.128882    -0.249782
C     2.965634    -1.060371    -0.055149
N     2.268862    0.097626    -0.117070
C     2.958652    1.228773    -0.387741
C     4.333019    1.244320    -0.597600
H     6.114978    0.024415    -0.688293
H     4.845706    -2.086674    -0.190015
H     2.383395    -1.948188    0.155436
H     2.378222    2.141826    -0.435471
H     4.833675    2.181659    -0.814387
C     -0.394127    -5.023592    -0.112057
C     -0.315040    -4.403382    1.134942
C     -0.127221    -3.026067    1.188767
N     -0.019259    -2.245930    0.091294
C     -0.101655    -2.861440    -1.107051
C     -0.283234    -4.232233    -1.255442
H     -0.536644    -6.096910    -0.191926
H     -0.393094    -4.972416    2.055008
H     -0.058311    -2.515187    2.142159
H     -0.013308    -2.227759    -1.982844
H     -0.336742    -4.664953    -2.248448
C     -4.932826    -0.486481    -0.372436
C     -4.244418    -1.055005    0.699541
C     -2.868911    -0.872400    0.787662
N     -2.157662    -0.159537    -0.112706
C     -2.834616    0.374071    -1.150613
C     -4.207990    0.237502    -1.318894
H     -6.007159    -0.608247    -0.468947
H     -4.759642    -1.634077    1.458885
H     -2.306840    -1.313690    1.602539
H     -2.253936    0.925744    -1.880866
H     -4.692330    0.693973    -2.175488
C     0.152850    0.052787    5.246866
C     -0.956114    0.551621    4.562198
C     -0.940672    0.558355    3.171281
N     0.093636    0.081655    2.444529
C     1.163854    -0.392435    3.118281
C     1.237323    -0.419727    4.507061
H     0.172866    0.035627    6.332148
H     -1.821204    0.932794    5.094025
H     -1.778473    0.959600    2.610510
H     1.985304    -0.762708    2.515571
H     2.126532    -0.808240    4.992534
