25
03/24/2023 16:57, XYZ structure generated by mol3D Class, molSimplify
Fe     -0.059251    -0.119143    -0.066749
S     0.157095    2.438070    0.379033
H     -0.152176    2.899305    -0.856690
O     1.836935    2.426107    0.267512
H     2.183196    3.265121    0.632187
S     2.460061    -0.349854    0.381240
H     2.417144    0.252467    1.595145
O     2.338508    -1.964497    0.858669
H     3.240304    -2.339532    0.911062
S     -0.276114    -2.676373    -0.513544
H     0.033322    -3.138087    0.721969
O     -1.955916    -2.664106    -0.401663
H     -2.302424    -3.502881    -0.766646
S     -2.578639    0.111722    -0.514307
H     -2.536186    -0.489877    -1.728583
O     -2.457587    1.726625    -0.990754
H     -3.359432    2.101674    -1.042170
S     -0.518179    -0.556681    2.541757
H     -1.630903    0.204881    2.709078
O     0.644759    0.500850    3.128168
H     0.771160    0.321616    4.082193
S     0.400315    0.317157    -2.675689
H     1.512770    -0.444941    -2.842382
O     -0.762961    -0.740133    -3.261801
H     -0.889138    -0.561268    -4.215923
