33

Fe     0.003388    0.005780    0.003300
C     0.330951    2.219108    0.341174
N     0.501099    3.356714    0.515196
C     0.710079    4.756828    0.728277
H     1.643450    5.056686    0.245782
H     0.767553    4.952009    1.801776
H     -0.125042    5.312524    0.294953
C     2.250569    -0.368265    0.324697
N     3.384684    -0.558068    0.493220
C     4.782213    -0.791197    0.699683
H     5.158450    -1.432810    -0.100729
H     4.923043    -1.281297    1.666033
H     5.308937    0.166012    0.687653
C     -0.305885    -2.212757    -0.335897
N     -0.465388    -3.351561    -0.513253
C     -0.660803    -4.752913    -0.731432
H     -1.430958    -4.892232    -1.493863
H     -0.976235    -5.220904    0.204146
H     0.278958    -5.196270    -1.069348
C     -2.250472    0.357099    -0.322324
N     -3.387990    0.522574    -0.493992
C     -4.789767    0.725073    -0.703698
H     -5.076638    1.694218    -0.288586
H     -5.343991    -0.072509    -0.203101
H     -4.996825    0.704333    -1.776360
N     -0.368041    -0.248270    2.219426
H     -1.178926    0.278101    2.549365
H     -0.534499    -1.221252    2.479970
H     0.421292    0.067425    2.785485
N     0.305919    0.311506    -2.217443
H     -0.109792    1.178023    -2.562754
H     1.299568    0.367459    -2.447631
H     -0.075598    -0.441663    -2.791545
