31

Fe     -0.326496    0.064886    -0.056116
N     0.523166    1.819833    0.242126
C     1.009876    2.862772    0.363554
C     1.624206    4.174985    0.512005
H     2.529775    4.097067    1.122228
H     1.889864    4.572896    -0.472950
H     0.924985    4.863249    0.997315
N     1.431543    -0.816643    0.144778
C     2.463542    -1.325304    0.275379
C     3.762755    -1.964213    0.445941
H     3.666298    -2.840463    1.095746
H     4.154745    -2.283749    -0.525323
H     4.468188    -1.260138    0.899420
N     -1.184967    -1.689453    -0.349083
C     -1.704904    -2.714670    -0.486522
C     -2.356144    -4.007215    -0.655078
H     -2.676417    -4.391377    0.319108
H     -3.233397    -3.904078    -1.301885
H     -1.659900    -4.720122    -1.108682
N     -2.077324    0.952888    -0.263571
C     -3.102266    1.479486    -0.370623
C     -4.391258    2.144254    -0.507267
H     -5.116344    1.463481    -0.964820
H     -4.760247    2.447045    0.478257
H     -4.286774    3.031874    -1.139679
S     -0.800323    -0.212271    2.300468
H     0.035021    0.676854    2.878767
H     -0.025946    -1.271584    2.616642
S     0.028425    0.434200    -2.425328
H     -0.841541    -0.428940    -2.992055
H     1.101596    -0.336486    -2.702674
