51

Fe     -0.003420    0.018869    0.001546
O     0.050270    -0.015387    2.083223
H     0.671033    0.574695    2.543012
H     0.023612    -0.841262    2.596942
O     -0.050073    0.069723    -2.082552
H     -0.643702    0.699564    -2.524424
H     -0.070847    -0.744716    -2.613494
C     0.010324    4.896941    0.021692
C     0.971844    4.177999    0.731539
C     0.935588    2.788019    0.697403
N     -0.002213    2.085662    0.024337
C     -0.934340    2.795620    -0.649557
C     -0.958770    4.185568    -0.685819
H     0.015500    5.982630    0.020180
H     1.747964    4.680838    1.298820
H     1.697918    2.209321    1.207461
H     -1.702404    2.222802    -1.158002
H     -1.731104    4.694015    -1.253499
C     4.860089    -0.018573    -0.177953
C     4.178234    -0.703422    0.829298
C     2.788682    -0.671599    0.839643
N     2.056498    0.001737    -0.075579
C     2.725691    0.660074    -1.047490
C     4.114653    0.671176    -1.134261
H     5.945069    -0.026205    -0.216417
H     4.709492    -1.259200    1.595091
H     2.229346    -1.206207    1.598771
H     2.117448    1.185304    -1.772972
H     4.596800    1.215725    -1.939402
C     0.008632    -4.849196    -0.021678
C     -0.833376    -4.138508    0.833992
C     -0.819282    -2.748501    0.791838
N     -0.006103    -2.041321    -0.024681
C     0.813113    -2.740863    -0.840889
C     0.841424    -4.131186    -0.879940
H     0.014920    -5.934683    -0.019617
H     -1.501207    -4.647695    1.520681
H     -1.497480    -2.171799    1.412081
H     1.484376    -2.158639    -1.463357
H     1.513876    -4.635181    -1.565739
C     -4.864022    -0.017438    0.177215
C     -4.182039    -0.694336    -0.835183
C     -2.792667    -0.662536    -0.844893
N     -2.061591    0.002686    0.076996
C     -2.730370    0.653781    1.053963
C     -4.119308    0.664601    1.139528
H     -5.948885    -0.025054    0.215063
H     -4.712911    -1.243699    -1.605526
H     -2.233201    -1.191925    -1.607868
H     -2.121342    1.174562    1.782543
H     -4.601711    1.203238    1.948152
