22

Fe     0.086983    0.265450    -0.101242
C     0.376446    2.076544    -0.452997
O     0.553275    3.175413    -0.678052
C     1.925758    0.012869    0.203731
O     3.004815    -0.116660    0.532672
C     -0.205424    -1.583853    0.244632
O     -0.379069    -2.681627    0.461902
C     -1.732147    0.581493    0.277107
O     -2.784136    0.779856    0.654761
O     0.167105    0.458992    1.825492
H     0.325455    1.378858    2.095530
C     -0.191859    -0.615106    -4.879938
C     -1.194337    0.101915    -4.227731
C     -1.076949    0.337450    -2.863364
N     -0.026878    -0.098725    -2.131814
C     0.940773    -0.792693    -2.772483
C     0.894654    -1.069102    -4.133218
H     -0.255957    -0.815372    -5.944830
H     -2.061083    0.478203    -4.760310
H     -1.842043    0.895811    -2.336431
H     1.772940    -1.137778    -2.170129
H     1.701685    -1.631938    -4.589765
