21

Fe     -0.013639    -0.227935    -0.063014
O     0.324012    1.827832    0.017455
H     -0.497602    2.351290    0.053399
H     0.947925    2.252714    0.632850
O     2.046835    -0.551237    -0.129995
H     2.662403    -0.039525    -0.684512
H     2.290260    -1.489258    -0.233093
O     -0.180378    -2.289060    -0.313183
H     -0.514484    -2.878780    0.384731
H     -0.452577    -2.684910    -1.159091
O     -2.031819    0.242310    0.126134
H     -2.490949    0.173088    0.981645
H     -2.698651    0.029620    -0.551149
P     0.277942    -0.488115    2.357045
H     1.327723    0.279967    2.897185
H     0.639109    -1.759825    2.849358
H     -0.755173    -0.165665    3.262820
P     -0.120243    0.160766    -2.482380
H     -1.178185    0.958727    -2.965521
H     -0.173834    -0.900825    -3.410474
H     0.974066    0.880601    -2.999933
