36

Fe     0.000051    0.000058    0.064247
C     0.000325    0.000081    1.883085
O     0.000242    0.000013    3.019399
C     0.006162    1.945185    0.030411
N     0.005252    3.105057    0.017634
C     0.007430    4.537991    0.005562
H     0.842541    4.887663    -0.605494
H     0.116872    4.898637    1.031039
H     -0.936452    4.892507    -0.414901
C     1.945135    0.005390    0.027577
N     3.105044    0.005167    0.013785
C     4.537869    0.006186    0.003735
H     4.890401    -0.830027    -0.604354
H     4.897053    -0.102146    1.029864
H     4.891061    0.949182    -0.419320
C     -0.006093    -1.945137    0.030467
N     -0.005223    -3.104972    0.017674
C     -0.007425    -4.537918    0.005557
H     -0.842571    -4.887554    -0.605473
H     -0.116860    -4.898590    1.031023
H     0.936480    -4.892425    -0.414857
C     -1.945062    -0.005051    0.028921
N     -3.104850    -0.004657    0.015779
C     -4.537747    -0.005825    0.003132
H     -4.885464    -0.612863    -0.835807
H     -4.893526    1.021172    -0.106105
H     -4.898674    -0.426870    0.944449
O     -0.000379    -0.000105    -2.078527
C     0.768422    -0.811250    -2.912046
C     0.494559    -0.522824    -4.202774
C     -0.494959    0.522841    -4.202784
C     -0.769088    0.811136    -2.912085
H     1.424214    -1.507204    -2.416768
H     0.939616    -0.994832    -5.067710
H     -1.425206    1.506835    -2.416843
H     -0.939873    0.994948    -5.067750
