57

Fe     0.069074    -0.061007    0.033535
C     0.869063    4.842572    -0.769213
C     1.644524    3.872770    -1.405749
C     1.376795    2.530844    -1.157203
N     0.397230    2.120001    -0.325813
C     -0.345415    3.064232    0.287218
C     -0.144639    4.427128    0.095050
H     1.050476    5.898949    -0.943423
H     2.444500    4.147767    -2.085118
H     1.960273    1.748347    -1.630427
H     -1.128729    2.705657    0.946695
H     -0.773796    5.144135    0.611724
C     5.025641    -0.662000    0.682743
C     4.327557    0.319178    1.387548
C     2.954345    0.432626    1.196769
N     2.262568    -0.364014    0.356831
C     2.945742    -1.310322    -0.319418
C     4.318078    -1.492629    -0.186976
H     6.097721    -0.777354    0.809219
H     4.835239    0.988041    2.074439
H     2.379045    1.186082    1.724184
H     2.361643    -1.941199    -0.981404
H     4.817305    -2.271624    -0.753428
C     -0.690175    -4.962407    0.806367
C     0.146609    -4.230880    1.650347
C     0.348276    -2.880224    1.387513
N     -0.231885    -2.241083    0.350961
C     -1.036795    -2.955960    -0.461410
C     -1.291481    -4.310065    -0.270792
H     -0.868791    -6.018883    0.983106
H     0.638112    -4.695778    2.498554
H     0.998625    -2.280384    2.015890
H     -1.488715    -2.413693    -1.285104
H     -1.947856    -4.838425    -0.954334
C     -4.867238    0.593946    -0.728459
C     -4.399678    -0.136922    0.364149
C     -3.027015    -0.276284    0.539711
N     -2.120940    0.260397    -0.303379
C     -2.582546    0.963295    -1.357757
C     -3.937914    1.154881    -1.605121
H     -5.932474    0.723924    -0.892884
H     -5.083903    -0.593011    1.071705
H     -2.627643    -0.838424    1.377250
H     -1.831749    1.387929    -2.015920
H     -4.253411    1.733307    -2.467030
N     -0.230621    0.322291    2.230187
C     -0.378632    0.502457    3.365616
C     -0.564736    0.727288    4.794220
H     0.264379    1.320866    5.192297
H     -1.502903    1.263451    4.969499
H     -0.600506    -0.231608    5.321127
N     0.358385    -0.418753    -2.185712
C     0.483001    -0.607017    -3.322605
C     0.639249    -0.844177    -4.753011
H     1.359875    -0.136500    -5.175153
H     1.000060    -1.863368    -4.925174
H     -0.322482    -0.718511    -5.260637
