49

Fe     0.038963    0.020414    0.004561
C     0.192966    5.338659    0.004615
C     1.336952    4.589684    -0.270196
C     1.240009    3.198333    -0.263978
N     0.099731    2.543725    -0.002203
C     -0.994531    3.271059    0.263417
C     -0.997998    4.665903    0.276870
H     0.229028    6.424935    0.006580
H     2.286644    5.069355    -0.487402
H     2.099476    2.567241    -0.472769
H     -1.896494    2.699686    0.466289
H     -1.913959    5.206654    0.495193
C     5.037821    -0.839148    -0.188382
C     4.383692    -0.781117    1.043587
C     3.027594    -0.460612    1.063784
N     2.331522    -0.206035    -0.054461
C     2.958270    -0.262732    -1.240572
C     4.312937    -0.574035    -1.351426
H     6.093861    -1.091051    -0.240544
H     4.910270    -0.985902    1.971354
H     2.430550    -0.407203    1.971480
H     2.301881    -0.058582    -2.084602
H     4.785221    -0.611898    -2.328779
C     -0.260458    -5.003488    0.010569
C     -0.175142    -4.296123    1.210772
C     -0.098086    -2.905124    1.164648
N     -0.106947    -2.225188    0.007534
C     -0.187241    -2.903129    -1.147872
C     -0.265826    -4.293950    -1.191251
H     -0.319096    -6.088969    0.011463
H     -0.164495    -4.809626    2.167740
H     -0.019588    -2.278559    2.049675
H     -0.181391    -2.275042    -2.034960
H     -0.326922    -4.805510    -2.147338
C     -5.041482    -0.382985    0.154743
C     -4.304321    -0.219468    1.329056
C     -2.924587    -0.038932    1.233833
N     -2.286195    -0.014331    0.053592
C     -2.991955    -0.180530    -1.074318
C     -4.373254    -0.366169    -1.071056
H     -6.118445    -0.526578    0.193980
H     -4.787781    -0.233946    2.301665
H     -2.257147    0.079669    2.085843
H     -2.381510    -0.172972    -1.975059
H     -4.909115    -0.496962    -2.006757
O     0.073942    0.100553    1.962796
H     0.412131    0.936933    2.314113
O     0.002488    0.107251    -1.954383
H     -0.300807    0.958883    -2.300755
