19

Fe     0.075710    -0.006692    0.050645
N     -0.079309    1.932600    0.379063
H     -1.026659    2.263753    0.594024
P     0.995755    3.138002    0.335615
P     2.809369    1.808379    -0.189051
N     1.976049    0.425051    -0.248001
H     2.574866    -0.381624    -0.457228
N     0.405663    -1.944377    -0.142602
H     0.348915    -2.308285    -1.100772
P     0.726588    -3.111061    0.928625
P     0.719761    -1.729942    2.778977
N     0.369210    -0.378538    1.964874
H     0.317800    0.441450    2.579875
N     -1.871217    -0.277170    0.217186
H     -2.205930    -0.456567    1.170740
P     -3.069633    -0.298889    -0.866400
P     -1.730237    0.140531    -2.694227
N     -0.346331    0.204610    -1.862128
H     0.460997    0.401950    -2.464076
