47

Fe     -0.000622    0.000597    -0.016783
C     0.173355    2.266610    -0.109298
N     0.288486    3.419638    -0.218547
C     0.436122    4.835138    -0.359788
H     1.131322    5.043868    -1.176630
H     0.827284    5.250582    0.572074
H     -0.537993    5.277597    -0.581422
C     2.263236    -0.112143    0.091108
N     3.419189    -0.084014    0.222597
C     4.837177    -0.032042    0.397815
H     5.301209    -0.844418    -0.166036
H     5.070595    -0.140306    1.459786
H     5.209349    0.928889    0.035033
C     -0.174027    -2.264599    -0.113583
N     -0.289876    -3.417801    -0.220051
C     -0.437638    -4.833895    -0.355751
H     -1.134171    -5.045895    -1.170636
H     -0.827609    -5.245190    0.578459
H     0.536161    -5.277517    -0.576863
C     -2.263866    0.111927    0.088803
N     -3.420148    0.080049    0.216922
C     -4.838503    0.019891    0.389661
H     -5.264124    -0.644144    -0.366518
H     -5.259681    1.022076    0.280486
H     -5.060234    -0.367330    1.387338
C     0.012009    0.003719    5.011942
C     -0.559620    1.059797    4.301129
C     -0.546165    1.016573    2.911439
N     -0.000841    -0.001561    2.216621
C     0.550593    -1.017190    2.910349
C     0.577295    -1.055023    4.299987
H     0.017476    0.006112    6.097688
H     -1.009715    1.904599    4.811675
H     -0.982945    1.818349    2.324819
H     0.981182    -1.821430    2.322571
H     1.031853    -1.898194    4.809330
C     -0.008422    0.001188    -5.037741
C     0.909861    -0.773579    -4.327939
C     0.877337    -0.744499    -2.938204
N     -0.002571    0.003762    -2.243599
C     -0.883612    0.752826    -2.935925
C     -0.920982    0.780525    -4.325549
H     -0.012313    -0.001818    -6.123466
H     1.640222    -1.391419    -4.839479
H     1.574380    -1.334765    -2.351731
H     -1.577933    1.344164    -2.347400
H     -1.651012    1.400683    -4.834696
