55
03/24/2023 16:57, XYZ structure generated by mol3D Class, molSimplify
Fe     0.000309    -0.000660    -0.000593
N     0.226460    2.041470    0.301550
C     -0.197148    4.240148    0.581576
N     1.161541    4.016026    0.613605
C     1.377193    2.690334    0.445414
C     -0.764501    3.009969    0.387038
H     2.359850    2.248786    0.421183
H     1.878909    4.719072    0.738195
H     -1.808158    2.755734    0.309962
H     -0.625759    5.223943    0.696016
N     2.039886    -0.278347    0.292622
C     4.269129    -0.371796    -0.048329
N     3.975378    -0.752536    1.242429
C     2.634371    -0.681324    1.411069
C     3.062756    -0.081378    -0.625987
H     2.140543    -0.933598    2.335178
H     4.643736    -1.039089    1.946359
H     2.866794    0.259205    -1.629089
H     5.278402    -0.343361    -0.429414
N     -0.226220    -2.042910    -0.302697
C     0.196976    -4.241416    -0.584600
N     -1.161736    -4.017207    -0.614886
C     -1.377150    -2.691602    -0.445751
C     0.764614    -3.011398    -0.389874
H     -2.359755    -2.250027    -0.420136
H     -1.879274    -4.720138    -0.739144
H     1.808368    -2.757274    -0.313675
H     0.625407    -5.225163    -0.700132
N     -2.039578    0.276592    -0.293576
C     -4.268691    0.371359    0.048261
N     -3.975572    0.748070    -1.243816
C     -2.634656    0.676244    -1.412908
C     -3.062055    0.082459    0.626112
H     -2.141356    0.925796    -2.338030
H     -4.644244    1.032730    -1.948218
H     -2.865678    -0.255256    1.630091
H     -5.277762    0.344198    0.429970
N     -0.326161    -0.255416    2.033461
C     -0.648003    -1.210885    4.053038
N     -0.662448    0.160966    4.175192
C     -0.464950    0.698124    2.948806
C     -0.439895    -1.455682    2.722541
H     -0.438128    1.759560    2.764965
H     -0.801950    0.682267    5.031422
H     -0.361077    -2.406839    2.222993
H     -0.784290    -1.870032    4.896618
N     0.326750    0.254654    -2.034431
C     0.645342    1.210606    -4.054262
N     0.664094    -0.161228    -4.176096
C     0.468431    -0.698688    -2.949551
C     0.436534    1.455111    -2.723826
H     0.445042    -1.760157    -2.765347
H     0.805331    -0.682290    -5.032187
H     0.354736    2.406148    -2.224516
H     0.779402    1.869957    -4.898040
