19

Fe     -0.002426    -0.155425    -0.016837
O     0.178384    1.876469    0.319021
H     0.509676    2.246923    1.157566
H     0.400349    2.509348    -0.387337
O     2.023125    -0.495726    -0.198124
H     2.671968    0.192128    -0.429282
H     2.290794    -1.312292    -0.656676
O     -0.171310    -2.172446    -0.413346
H     -0.164663    -2.816016    0.318349
H     -0.834293    -2.497297    -1.049001
O     -2.028123    0.169101    0.176643
H     -2.641302    -0.372079    0.704320
H     -2.254285    1.101491    0.352149
S     0.415384    -0.449353    2.456474
H     -0.525044    -1.216813    3.047134
H     1.399913    -1.368557    2.533038
S     -0.314533    0.436429    -2.438135
H     -1.618833    0.160134    -2.649491
H     0.153847    -0.582724    -3.188694
