54

Fe     -0.009641    -0.005024    -0.140717
O     -0.182186    -0.046420    1.969114
H     0.151415    -0.810031    2.469424
H     -1.043359    0.173631    2.363415
C     0.134164    0.001329    -2.031445
N     0.203847    -0.018376    -3.195745
C     0.286251    -0.042427    -4.623613
H     -0.268443    -0.903582    -5.004998
H     1.334130    -0.118755    -4.924069
H     -0.144984    0.877259    -5.026953
C     0.018871    4.857276    0.084841
C     0.655374    4.087431    1.057878
C     0.618752    2.699966    0.954566
N     -0.014390    2.056718    -0.051104
C     -0.637430    2.811541    -0.983410
C     -0.640639    4.201231    -0.955133
H     0.033710    5.941508    0.135111
H     1.178108    4.549986    1.888354
H     1.106795    2.071783    1.689717
H     -1.152944    2.273492    -1.770259
H     -1.154728    4.753312    -1.735190
C     4.832965    0.120281    0.441910
C     4.056270    -0.793229    1.154005
C     2.682080    -0.816093    0.942275
N     2.049865    0.010766    0.083106
C     2.812896    0.888637    -0.604681
C     4.193014    0.972746    -0.457401
H     5.908608    0.164698    0.581660
H     4.501971    -1.484834    1.860677
H     2.063675    -1.538981    1.461447
H     2.288718    1.544757    -1.289164
H     4.749947    1.698514    -1.040469
C     0.015165    -4.881925    0.012180
C     -0.863601    -4.143048    0.804689
C     -0.846026    -2.755899    0.713124
N     -0.007765    -2.077825    -0.101714
C     0.839093    -2.803949    -0.864397
C     0.879104    -4.193883    -0.839543
H     0.025549    -5.966233    0.058647
H     -1.558570    -4.628169    1.482304
H     -1.533339    -2.156880    1.298628
H     1.510977    -2.243289    -1.503362
H     1.580963    -4.722083    -1.475914
C     -4.891273    0.037434    -0.271199
C     -4.184973    0.902883    0.564330
C     -2.795283    0.868832    0.546890
N     -2.083380    0.022791    -0.231476
C     -2.777809    -0.810371    -1.036107
C     -4.168228    -0.830289    -1.089330
H     -5.976702    0.041142    -0.285616
H     -4.696131    1.603259    1.216071
H     -2.223807    1.564155    1.153303
H     -2.191489    -1.485427    -1.648457
H     -4.668513    -1.520337    -1.760786
