29

Fe     0.001756    0.002158    0.001625
C     0.001151    3.127947    0.001067
N     0.001941    1.971631    0.001549
C     -0.000179    4.583694    0.000072
H     -0.277881    4.954526    -0.992324
H     0.997319    4.956485    0.255606
H     -0.719922    4.955410    0.737117
C     3.127543    -0.002640    0.000915
N     1.971232    0.000654    0.001603
C     4.583216    -0.008393    -0.000026
H     4.959763    1.019975    -0.000681
H     4.952276    -0.524682    -0.892659
H     4.953480    -0.524039    0.892477
C     -0.002388    -3.123684    0.001251
N     0.000476    -1.967372    0.001705
C     -0.007502    -4.579355    0.000607
H     1.021041    -4.955398    0.006508
H     -0.518106    -4.948855    -0.895109
H     -0.528586    -4.949641    0.889930
C     -3.124086    0.001335    0.000129
N     -1.967770    0.002353    0.001311
C     -4.579826    -0.000433    -0.002085
H     -4.951892    -0.740847    0.714005
H     -4.949604    -0.250439    -1.002229
H     -4.953281    0.989363    0.280902
C     0.001711    0.002474    1.927292
O     0.001659    0.002670    3.057984
C     0.002088    0.002151    -1.923589
O     0.002285    0.002124    -3.054305
