25

Fe     0.023825    -0.203157    0.017597
N     0.257913    1.869287    0.250213
H     -0.087089    2.216626    1.148329
H     -0.199933    2.453272    -0.454015
H     1.241331    2.149162    0.224755
N     2.096522    -0.413874    -0.251276
H     2.680678    -0.030279    0.496265
H     2.448263    0.018446    -1.109101
H     2.375845    -1.394987    -0.323539
N     -0.230926    -2.283811    -0.162569
H     -1.114185    -2.603653    0.243242
H     0.484805    -2.847769    0.303369
H     -0.248719    -2.624532    -1.126969
N     -2.055668    0.017934    0.233215
H     -2.359919    0.982089    0.078003
H     -2.413599    -0.218240    1.161975
H     -2.614463    -0.542546    -0.415656
P     0.319428    -0.538526    2.415402
H     1.446403    -1.270380    2.851216
H     -0.673362    -1.242571    3.132755
H     0.448067    0.573069    3.278045
P     -0.283742    0.108368    -2.382353
H     -0.915827    1.289706    -2.830615
H     -1.070482    -0.826466    -3.091949
H     0.834465    0.132755    -3.245602
