25

Fe     0.005412    -0.003085    0.000760
P     -0.466834    2.637584    0.377462
H     -1.097683    3.060288    1.567215
H     -1.271068    3.329970    -0.553222
H     0.643968    3.507911    0.396343
P     2.656289    0.338866    0.428018
H     3.569842    -0.310817    -0.429869
H     3.224358    -0.025891    1.667595
H     3.164914    1.651827    0.331376
P     0.478787    -2.640339    -0.378706
H     -0.637675    -3.494931    -0.501661
H     1.196651    -3.358791    0.601444
H     1.197450    -3.051268    -1.521781
P     -2.644607    -0.367573    -0.428574
H     -3.568955    0.442065    0.266426
H     -3.182734    -1.632336    -0.107901
H     -3.171493    -0.228840    -1.730698
P     -0.382800    -0.419989    2.632916
H     -0.043908    -1.672064    3.190440
H     -1.689770    -0.305449    3.155183
H     0.286545    0.411296    3.556940
P     0.373144    0.443922    -2.629500
H     -0.365020    1.485763    -3.232103
H     0.070699    -0.586345    -3.545846
H     1.654481    0.788237    -3.112141
