26

Fe     -0.207870    0.013374    0.062944
C     -0.513846    0.009779    -1.840690
O     -0.699833    -0.005879    -2.958549
O     0.112167    2.030691    0.021471
H     1.068745    2.211941    -0.058461
H     -0.331640    2.613424    -0.620716
O     1.805926    -0.117115    -0.174619
H     2.258862    -0.553520    -0.918135
H     2.269482    -0.379305    0.640941
O     -0.503406    -2.009006    0.103242
H     -0.246989    -2.596186    -0.631114
H     -1.438683    -2.208674    0.299467
O     -2.197454    0.147561    0.445834
H     -2.403487    0.399772    1.364188
H     -2.844356    0.594188    -0.128967
C     0.528721    -0.022798    4.836505
C     0.152214    1.150652    4.181443
C     -0.040310    1.126788    2.805325
N     0.110667    -0.000614    2.064088
C     0.475512    -1.138678    2.708927
C     0.695578    -1.184201    4.080587
H     0.687255    -0.032160    5.910455
H     0.008400    2.079135    4.724150
H     -0.310651    2.025279    2.264890
H     0.574956    -2.030458    2.102119
H     0.987921    -2.121470    4.542414
