55

Fe     -0.034709    0.064737    -0.007643
C     0.720386    4.977927    0.850066
C     1.382096    4.328175    -0.192738
C     1.133774    2.976028    -0.402480
N     0.276896    2.257611    0.352797
C     -0.353753    2.894403    1.361657
C     -0.161995    4.243254    1.642851
H     0.889974    6.033184    1.041140
H     2.080252    4.855928    -0.833877
H     1.647827    2.436279    -1.191466
H     -1.036220    2.293652    1.953735
H     -0.696789    4.704824    2.466290
C     4.940371    -0.542523    -0.706647
C     4.442762    0.170773    0.384286
C     3.065023    0.287254    0.539019
N     2.178988    -0.258337    -0.320578
C     2.672482    -0.949756    -1.368533
C     4.033935    -1.114752    -1.599993
H     6.010121    -0.651901    -0.856623
H     5.108232    0.631489    1.106813
H     2.644405    0.837855    1.373593
H     1.944915    -1.400245    -2.036159
H     4.371429    -1.681989    -2.460991
C     -0.769061    -4.886608    -0.739956
C     0.257852    -4.431322    0.087451
C     0.431710    -3.060602    0.251275
N     -0.350257    -2.142767    -0.354455
C     -1.345200    -2.595302    -1.146742
C     -1.587290    -3.946696    -1.368189
H     -0.929523    -5.949749    -0.890956
H     0.918220    -5.123998    0.598561
H     1.223237    -2.674164    0.884439
H     -1.975968    -1.841343    -1.607456
H     -2.401000    -4.251017    -2.018064
C     -5.016276    0.627478    0.714815
C     -4.323577    1.525679    -0.098367
C     -2.951619    1.362034    -0.257816
N     -2.252133    0.368445    0.330834
C     -2.931549    -0.490744    1.118321
C     -4.302898    -0.397808    1.336208
H     -6.087282    0.726735    0.862838
H     -4.832606    2.342823    -0.598676
H     -2.381970    2.061128    -0.863586
H     -2.347231    -1.278619    1.581272
H     -4.797168    -1.117740    1.980077
N     0.255106    -0.330669    2.200640
C     0.394145    -0.521734    3.335468
C     0.569165    -0.762405    4.762861
H     -0.071487    -1.589421    5.085224
H     1.612621    -1.016739    4.974904
H     0.301246    0.135864    5.328472
N     -0.334557    0.429837    -2.228576
H     0.177380    1.216125    -2.630397
H     -1.322246    0.607132    -2.415536
H     -0.090176    -0.387701    -2.788577
