11

Fe     0.000006    0.000007    0.001181
C     0.000001    1.874172    0.001830
O     -0.000002    3.010183    0.002573
C     1.874172    0.000011    0.001745
O     3.010182    0.000014    0.002458
C     0.000010    -1.874167    0.001610
O     0.000012    -3.010177    0.002148
C     -1.874168    0.000001    0.001714
O     -3.010177    -0.000002    0.002303
F     0.000020    -0.000099    1.889826
F     -0.000057    0.000056    -1.887239
