19

Fe     0.059537    0.008346    -0.274754
S     0.399762    2.297562    -0.685320
N     0.844710    2.834545    -2.070850
H     0.978026    2.161579    -2.845089
S     2.326782    -0.338940    -0.688638
N     3.212565    -1.241687    0.210070
H     2.767983    -1.724341    1.006637
S     -0.275519    -2.218959    -0.004691
N     -0.658905    -2.940563    1.323299
H     -0.788090    -2.347627    2.158246
S     -2.237410    0.438236    -0.016830
N     -2.687515    1.489255    1.020421
H     -1.923306    1.961087    1.564067
S     0.469734    0.377908    1.896335
N     -0.215185    1.717300    2.356390
H     -0.036015    1.920281    3.354172
S     -0.300457    -0.269596    -2.568674
N     -0.685691    -1.604227    -3.269138
H     -0.791547    -2.443132    -2.672557
