25

Fe     -0.000015    0.000092    -0.000002
O     -0.000017    2.177767    -0.000011
H     0.692354    2.754936    -0.364141
H     -0.692372    2.754937    0.364144
O     2.198978    -0.010983    -0.017467
H     2.799545    0.010385    -0.782117
H     2.765596    -0.011511    0.773203
O     0.000035    -2.173963    0.000025
H     0.712196    -2.750798    -0.324521
H     -0.712177    -2.750755    0.324506
O     -2.198994    -0.010985    0.017467
H     -2.799552    0.010305    0.782121
H     -2.765601    -0.011377    -0.773207
C     -0.004412    0.005413    2.204797
N     -0.001359    0.003792    3.366377
C     0.004678    0.000066    4.799488
H     0.612773    -0.837655    5.149569
H     -1.021360    -0.108694    5.159384
H     0.426798    0.943055    5.155478
C     0.004368    0.005400    -2.204875
N     0.001395    0.003789    -3.366294
C     -0.004674    0.000066    -4.799500
H     -0.612762    -0.837661    -5.149577
H     1.021360    -0.108686    -5.159379
H     -0.426782    0.943064    -5.155469
