24

Fe     0.028669    0.021841    0.106755
P     -0.347848    2.684003    -0.148497
H     -0.665569    3.495788    0.960201
H     0.724240    3.428976    -0.682869
H     -1.366885    3.092890    -1.034373
P     2.666309    0.421922    0.515737
H     3.037141    1.578335    1.235313
H     3.354261    -0.539504    1.286888
H     3.583311    0.533510    -0.552796
P     0.463633    -2.644308    -0.157153
H     1.686050    -3.020678    -0.752434
H     0.462357    -3.525916    0.943953
H     -0.419693    -3.339185    -1.009920
P     -2.621398    -0.389462    -0.301256
H     -3.191554    -1.565937    0.231317
H     -3.518403    0.550632    0.250522
H     -3.167070    -0.462123    -1.602259
P     -0.395433    -0.082958    2.738670
H     0.689470    0.018505    3.635100
H     -1.248529    0.880257    3.318295
H     -0.998820    -1.247780    3.259042
O     0.356118    0.042766    -2.095682
H     -0.330824    -0.013778    -2.781378
H     1.210432    0.094153    -2.557510
