13
03/24/2023 16:57, XYZ structure generated by mol3D Class, molSimplify
Fe     -0.040589    -0.023001    0.033844
O     0.754940    1.857315    0.520009
S     2.214568    2.269052    0.692015
S     3.190728    0.485735    0.400830
O     2.032807    -0.467048    0.122566
O     -0.441835    -2.060537    -0.419465
S     -0.654050    -3.211128    0.557528
S     -0.546630    -2.271145    2.375464
O     -0.326407    -0.818369    1.969556
O     -2.063338    0.641573    -0.108310
S     -2.792013    1.269439    -1.290175
S     -1.352354    1.223728    -2.750145
O     -0.187175    0.565362    -2.024009
