31

Fe     -0.026418    -0.037798    0.013294
C     0.302985    2.156343    -0.346414
N     0.464812    3.291785    -0.530920
C     0.665895    4.691194    -0.759140
H     1.421416    4.819507    -1.537987
H     1.004597    5.158481    0.168680
H     -0.278180    5.139022    -1.078646
C     2.142208    -0.413418    -0.291746
N     3.271618    -0.640817    -0.445944
C     4.662227    -0.925243    -0.635225
H     4.765868    -1.923421    -1.067568
H     5.170415    -0.884009    0.331143
H     5.089180    -0.181338    -1.312170
C     -0.345848    -2.228976    0.370485
N     -0.512360    -3.362820    0.554498
C     -0.723093    -4.760048    0.782095
H     -1.666221    -5.056929    0.317020
H     -0.762711    -4.942293    1.858754
H     0.102873    -5.321087    0.338430
C     -2.200340    0.293242    0.329885
N     -3.339831    0.444234    0.499751
C     -4.745250    0.618681    0.710745
H     -4.961468    1.685186    0.809364
H     -5.034879    0.094439    1.624645
H     -5.287364    0.206456    -0.143714
S     0.314050    0.244683    2.700599
H     1.616748    0.551745    2.872223
H     -0.115746    1.493966    2.974713
S     -0.541524    -0.511849    -2.615842
H     -1.083220    0.633125    -3.081049
H     0.634503    -0.326498    -3.251006
