37

Fe     0.001412    0.001514    -0.002753
C     0.002145    2.235454    -0.002931
N     0.005998    3.398206    -0.003000
C     0.012313    4.827702    -0.002244
H     0.848692    5.182778    -0.609158
H     0.121128    5.186416    1.023986
H     -0.928410    5.190654    -0.423330
C     2.274398    0.001905    -0.002527
N     3.436017    0.001248    -0.001180
C     4.865802    -0.000748    0.001417
H     5.223266    -0.837150    -0.603964
H     5.221095    -0.108382    1.028999
H     5.225913    0.941385    -0.418756
C     0.001079    -2.232416    -0.003035
N     -0.001837    -3.395163    -0.002065
C     -0.006908    -4.824664    0.000412
H     -0.842905    -5.181209    -0.606160
H     -0.115411    -5.182168    1.027102
H     0.934173    -5.187289    -0.420147
C     -2.271648    -0.000186    -0.002115
N     -3.433259    -0.003754    -0.000244
C     -4.862964    -0.009056    0.002259
H     -5.224082    0.979715    0.295072
H     -5.216563    -0.758649    0.714233
H     -5.221466    -0.252378    -1.000779
C     -0.002552    -0.000522    3.395238
N     0.000184    0.000583    2.237097
C     -0.006087    -0.002886    4.852736
H     0.918227    -0.454437    5.227143
H     -0.858545    -0.581413    5.222823
H     -0.079995    1.022036    5.229744
C     -0.000776    0.005064    -3.400609
N     0.000978    0.002677    -2.242469
C     -0.003213    0.008194    -4.858125
H     0.964038    -0.341039    -5.233341
H     -0.184983    1.021324    -5.230448
H     -0.789343    -0.655660    -5.231749
