55

Fe     0.035029    0.006377    0.005779
O     0.055460    2.075168    -0.019903
C     -1.043463    2.940078    0.125118
C     -0.621751    4.217336    0.017107
C     0.800534    4.186203    -0.209769
C     1.180788    2.892075    -0.227295
H     -1.990335    2.460433    0.302507
H     -1.244891    5.097821    0.091735
H     2.113439    2.374900    -0.366330
H     1.453152    5.037735    -0.344114
O     2.103017    0.010004    0.021325
C     2.936928    -0.051697    1.151442
C     4.226045    -0.074387    0.752639
C     4.235696    -0.020028    -0.687039
C     2.952168    0.027792    -1.099144
H     2.428781    -0.072164    2.099417
H     5.088860    -0.122002    1.402412
H     2.458022    0.078423    -2.053248
H     5.104979    -0.016718    -1.330427
O     0.051050    -2.054289    0.033928
C     1.163492    -2.873400    0.296925
C     0.775710    -4.165632    0.288310
C     -0.637884    -4.192612    0.009929
C     -1.047512    -2.915210    -0.135364
H     2.091345    -2.357140    0.469315
H     1.418035    -5.018541    0.460095
H     -1.985062    -2.433558    -0.352268
H     -1.264072    -5.070474    -0.071427
O     -2.039899    0.006940    -0.033365
C     -2.914685    0.166373    1.055056
C     -4.189013    0.071504    0.621603
C     -4.146432    -0.162058    -0.799176
C     -2.848430    -0.192933    -1.166649
H     -2.443736    0.328027    2.008994
H     -5.074603    0.155434    1.236253
H     -2.325028    -0.331992    -2.096283
H     -4.992938    -0.288071    -1.460508
O     -0.005377    0.022118    2.065063
C     -0.367985    -1.054338    2.893025
C     -0.480170    -0.618314    4.164693
C     -0.183232    0.792233    4.167631
C     0.096241    1.151619    2.897130
H     -0.498025    -1.998993    2.393841
H     -0.743521    -1.226430    5.019201
H     0.386761    2.064252    2.405842
H     -0.178973    1.449456    5.026267
O     0.043520    -0.012677    -2.049514
C     -0.241320    1.070333    -2.898526
C     -0.173569    0.657071    -4.181112
C     0.168030    -0.743680    -4.168539
C     0.289363    -1.121492    -2.878459
H     -0.473332    1.996937    -2.402787
H     -0.344402    1.272589    -5.053628
H     0.538532    -2.036358    -2.368651
H     0.305675    -1.384302    -5.029124
