35

Fe     0.060142    -0.066309    0.088656
C     0.565094    2.988915    -0.371472
N     0.382670    1.857414    -0.214757
C     0.793324    4.414665    -0.571469
H     0.686958    4.665785    -1.631790
H     1.802654    4.681839    -0.242317
H     0.065697    4.993914    0.006112
C     3.115935    -0.516483    0.587854
N     1.988267    -0.351953    0.390246
C     4.537582    -0.723342    0.835034
H     5.063675    0.236472    0.814025
H     4.960848    -1.377593    0.065980
H     4.682590    -1.187200    1.815985
C     -0.452351    -3.116976    0.574192
N     -0.261870    -1.992977    0.378994
C     -0.692706    -4.533664    0.819177
H     0.231941    -5.018066    1.149205
H     -1.040548    -5.019434    -0.098244
H     -1.454395    -4.654237    1.596210
C     -3.001549    0.391109    -0.393123
N     -1.869320    0.218020    -0.231215
C     -4.428235    0.610404    -0.596197
H     -4.999774    0.093166    0.181208
H     -4.731789    0.226412    -1.575525
H     -4.651453    1.681141    -0.549320
C     -0.372859    0.447705    3.153295
N     -0.211914    0.260722    2.023259
C     -0.575286    0.683004    4.578006
H     -1.646011    0.720605    4.802627
H     -0.117506    1.633870    4.869033
H     -0.118038    -0.124238    5.159075
P     0.358135    -0.454201    -2.230969
H     1.673234    -0.485369    -2.736768
H     -0.138055    -1.654964    -2.777161
H     -0.219204    0.470659    -3.124048
