45

Fe     0.018273    0.014544    -0.227408
C     -0.040020    -0.051292    2.140937
O     -0.083954    -0.083328    3.268278
C     0.104293    0.206801    -2.375869
N     0.158472    0.351402    -3.525856
C     0.222043    0.536141    -4.945548
H     -0.115174    -0.380581    -5.435773
H     1.254501    0.755023    -5.228905
H     -0.426467    1.371640    -5.221107
O     0.006912    2.139750    0.078934
C     -1.117476    2.958479    0.290949
C     -0.724275    4.245249    0.367603
C     0.707873    4.272010    0.195659
C     1.117753    2.999887    0.021125
H     -2.061360    2.443417    0.342607
H     -1.372549    5.096141    0.527661
H     2.064913    2.515696    -0.146119
H     1.343565    5.146797    0.204921
O     2.284871    -0.029809    -0.135117
C     3.111024    0.209064    0.973040
C     4.378165    -0.157282    0.683351
C     4.378742    -0.662008    -0.666570
C     3.112720    -0.572649    -1.125521
H     2.636507    0.660479    1.829681
H     5.229989    -0.077249    1.344822
H     2.626221    -0.826242    -2.052475
H     5.230908    -1.038860    -1.215614
O     -0.018828    -2.110782    0.000935
C     1.000413    -2.897765    0.569772
C     0.533591    -4.144007    0.782922
C     -0.839321    -4.174638    0.340431
C     -1.144295    -2.945409    -0.120687
H     1.945619    -2.400637    0.708547
H     1.095568    -4.967499    1.201882
H     -2.019400    -2.483237    -0.546093
H     -1.507137    -5.024893    0.365222
O     -2.275604    0.018744    -0.235972
C     -3.069973    -0.119871    -1.382276
C     -4.370893    -0.207477    -1.032674
C     -4.431493    -0.121430    0.403978
C     -3.163831    0.011156    0.847832
H     -2.536307    -0.116489    -2.317377
H     -5.205370    -0.315388    -1.711939
H     -2.719500    0.108686    1.824535
H     -5.320382    -0.153519    1.018981
