59

Fe     -0.005175    -0.009365    -0.240556
O     -0.069963    -0.020152    1.889766
H     0.733934    0.043770    2.431859
H     -0.769933    0.466806    2.355818
C     -0.168299    4.900116    -0.129922
C     -0.744992    4.196552    -1.186067
C     -0.684845    2.805898    -1.188269
N     -0.087738    2.089202    -0.212197
C     0.463562    2.784570    0.808387
C     0.444627    4.171912    0.890570
H     -0.194622    5.985103    -0.101410
H     -1.239687    4.710927    -2.002847
H     -1.128673    2.239898    -1.996236
H     0.945491    2.197264    1.579345
H     0.908052    4.665695    1.738407
C     4.836853    0.282106    0.547642
C     4.082390    -0.786549    1.029584
C     2.724747    -0.846348    0.729355
N     2.082172    0.089626    -0.008165
C     2.826190    1.124919    -0.462325
C     4.189163    1.254412    -0.214717
H     5.899528    0.354692    0.758193
H     4.532731    -1.573164    1.625907
H     2.122457    -1.674752    1.081187
H     2.301208    1.869458    -1.048394
H     4.726039    2.108115    -0.615022
C     0.184671    -4.905208    -0.080615
C     -0.364899    -4.166146    0.967225
C     -0.394171    -2.779031    0.874299
N     0.091329    -2.097467    -0.189212
C     0.630549    -2.823515    -1.191847
C     0.693433    -4.213316    -1.178788
H     0.216890    -5.989885    -0.041803
H     -0.771693    -4.651547    1.847985
H     -0.812036    -2.176589    1.669203
H     1.023206    -2.265725    -2.030474
H     1.135195    -4.736600    -2.020134
C     -4.857973    -0.322830    0.536319
C     -4.128191    0.794746    0.939788
C     -2.774284    0.864196    0.628041
N     -2.110628    -0.103015    -0.046618
C     -2.832852    -1.180017    -0.432219
C     -4.191595    -1.325240    -0.167925
H     -5.916240    -0.408904    0.763194
H     -4.593915    1.609144    1.484917
H     -2.190744    1.730799    0.914602
H     -2.294190    -1.946912    -0.973983
H     -4.711266    -2.214712    -0.508830
C     0.027065    0.003546    -5.154982
C     1.217910    0.008901    -4.430518
C     1.167874    -0.005175    -3.040175
N     0.014384    -0.018837    -2.332360
C     -1.131765    -0.031687    -3.050623
C     -1.169888    -0.021484    -4.441312
H     0.032761    0.015343    -6.240673
H     2.182577    0.021300    -4.927116
H     2.085114    -0.019536    -2.469538
H     -2.050505    -0.042070    -2.482886
H     -2.129632    -0.032667    -4.946662
