32

Fe     0.007142    0.016226    0.068042
N     0.353732    2.158442    0.353874
C     0.527935    3.302251    0.412219
C     0.746881    4.740164    0.482010
H     1.747170    4.947070    0.876138
H     0.659843    5.176397    -0.518695
H     0.001420    5.200788    1.138355
N     2.149155    -0.301303    -0.293023
C     3.284247    -0.443372    -0.478770
C     4.710915    -0.621852    -0.713833
H     5.074591    0.144441    -1.406105
H     5.257450    -0.537406    0.231221
H     4.897082    -1.611049    -1.144658
N     -0.342708    -2.121581    -0.272747
C     -0.515495    -3.257226    -0.425474
C     -0.732682    -4.684442    -0.618734
H     -0.137528    -5.040906    -1.465905
H     -0.433621    -5.231860    0.281302
H     -1.791612    -4.878049    -0.818604
N     -2.147761    0.340007    0.354029
C     -3.278254    0.542097    0.509210
C     -4.699641    0.796844    0.702169
H     -5.270912    0.361121    -0.124198
H     -5.036338    0.348578    1.642601
H     -4.885050    1.875429    0.732560
N     0.262894    -0.263194    2.225134
H     -0.084004    -1.176674    2.522738
H     -0.232762    0.434960    2.782045
H     1.244788    -0.219908    2.503271
S     -0.353114    0.527467    -2.564846
H     -1.461995    -0.180988    -2.863225
H     0.478229    -0.342457    -3.175448
