56

Fe     -0.071190    -0.048970    0.062068
C     -0.318430    -0.335688    1.820971
O     -0.536849    -0.584940    2.914039
O     -0.084609    0.051313    -2.297608
C     0.532858    -0.801683    -3.212710
C     0.068559    -0.568302    -4.459765
C     -0.899515    0.489449    -4.354349
C     -0.965331    0.835662    -3.049723
H     1.260114    -1.483141    -2.810850
H     0.376324    -1.082952    -5.359122
H     -1.547717    1.554110    -2.497730
H     -1.472384    0.931501    -5.157710
C     0.611729    4.773451    0.570270
C     0.310345    3.973129    1.671708
C     0.081594    2.616059    1.478799
N     0.128758    2.017072    0.265026
C     0.430160    2.804223    -0.790787
C     0.674164    4.169267    -0.684310
H     0.796993    5.836401    0.688231
H     0.253590    4.384022    2.674415
H     -0.145218    1.995153    2.337217
H     0.477641    2.312114    -1.751181
H     0.910916    4.741411    -1.575560
C     4.804341    0.152460    0.330634
C     4.055220    -0.329777    1.403457
C     2.672460    -0.409837    1.283216
N     2.004687    -0.030463    0.169670
C     2.740562    0.444741    -0.860562
C     4.126632    0.546677    -0.822603
H     5.886504    0.217850    0.391262
H     4.528055    -0.647485    2.326201
H     2.082795    -0.801314    2.103569
H     2.196102    0.741592    -1.746448
H     4.656446    0.930669    -1.687827
C     0.061038    -4.953787    -0.153273
C     -1.068188    -4.294077    0.330487
C     -1.088881    -2.904008    0.339974
N     -0.059583    -2.143735    -0.103019
C     1.037890    -2.797239    -0.548110
C     1.134086    -4.182787    -0.598622
H     0.108600    -6.038243    -0.172986
H     -1.925725    -4.843388    0.703835
H     -1.952554    -2.374545    0.721191
H     1.870556    -2.182379    -0.858594
H     2.043110    -4.640787    -0.975100
C     -4.893121    0.242679    -0.507839
C     -4.235394    1.039061    0.430060
C     -2.855592    0.932120    0.556662
N     -2.110047    0.085237    -0.190181
C     -2.756621    -0.678152    -1.102294
C     -4.133294    -0.628649    -1.288244
H     -5.970502    0.298709    -0.628231
H     -4.778136    1.734550    1.061534
H     -2.323183    1.544693    1.273151
H     -2.143030    -1.343309    -1.696444
H     -4.592321    -1.266576    -2.036414
