13

Fe     0.140729    -0.185322    0.230936
P     0.531766    2.096212    0.569210
P     0.850104    3.945173    0.852383
P     2.422216    -0.525176    -0.160612
P     4.271124    -0.809094    -0.478330
P     -0.250660    -2.466763    -0.107806
P     -0.571663    -4.315488    -0.389256
P     -2.140283    0.153818    0.622893
P     -3.989289    0.434033    0.943363
P     0.479982    -0.575870    2.512397
P     0.756942    -0.896520    4.361817
P     -0.198383    0.205300    -2.050394
P     -0.476278    0.525556    -3.899740
