29

Fe     0.006856    -0.002702    0.009098
P     -1.102968    2.015594    0.439240
H     -2.420541    1.949199    0.936485
H     -0.553102    2.914119    1.377872
H     -1.296472    2.900028    -0.640694
P     1.813228    0.748479    1.289363
H     1.563875    1.044907    2.644513
H     2.952780    -0.069500    1.434990
H     2.436385    1.949523    0.894348
P     1.057578    -2.042699    -0.433326
H     2.251515    -2.366572    0.243668
H     0.321200    -3.217582    -0.178948
H     1.461538    -2.298039    -1.759185
P     -1.829903    -0.686070    -1.275511
H     -1.727198    -1.859201    -2.052570
H     -3.038553    -0.958556    -0.603918
H     -2.298974    0.200024    -2.266640
C     -0.781086    -0.782563    1.581194
N     -1.255196    -1.256868    2.533480
C     -1.836866    -1.841942    3.706952
H     -1.121546    -2.538401    4.151245
H     -2.748609    -2.375237    3.427024
H     -2.074897    -1.049899    4.421169
C     0.811093    0.767149    -1.559252
N     1.298618    1.232134    -2.509265
C     1.903441    1.802876    -3.678007
H     1.868704    1.073616    -4.491080
H     2.941946    2.059285    -3.454598
H     1.352761    2.702461    -3.963594
