42

Fe     -0.002808    0.001110    -0.000332
C     0.155143    1.925359    -0.008420
N     0.257825    3.083758    -0.020058
C     0.395078    4.507592    -0.032345
H     1.293295    4.777415    -0.593055
H     0.481654    4.869181    0.995207
H     -0.483228    4.951660    -0.507378
C     1.924074    -0.112269    -0.012774
N     3.086056    -0.154779    -0.033646
C     4.515692    -0.187506    -0.057326
H     4.847830    -1.020246    -0.682085
H     4.889137    -0.317723    0.961346
H     4.889630    0.753805    -0.467520
C     -0.160447    -1.923104    0.005415
N     -0.260672    -3.081674    -0.004113
C     -0.391306    -4.505735    -0.025075
H     -1.298220    -4.775400    -0.571497
H     -0.456440    -4.877528    1.000284
H     0.480191    -4.940342    -0.520637
C     -1.930914    0.117099    -0.007870
N     -3.092768    0.160492    -0.033173
C     -4.521911    0.193844    -0.070117
H     -4.877785    -0.522368    -0.814617
H     -4.853734    1.199607    -0.338309
H     -4.913741    -0.073990    0.913990
C     -0.004754    -0.006472    -1.911631
N     -0.001365    -0.010798    -3.074687
C     0.010436    -0.012298    -4.504677
H     -0.705959    -0.751438    -4.871230
H     1.013462    -0.266608    -4.855806
H     -0.266271    0.980171    -4.868583
C     -0.009130    -0.005785    4.898586
C     -0.806184    0.887923    4.184398
C     -0.769900    0.864365    2.794648
N     0.002858    0.007515    2.093465
C     0.773893    -0.851859    2.793529
C     0.798280    -0.888917    4.183041
H     -0.015470    -0.013017    5.984010
H     -1.449189    1.600184    4.690214
H     -1.375340    1.553034    2.217070
H     1.389646    -1.530624    2.215502
H     1.442782    -1.600389    4.688350
