32

Fe     0.141934    0.106204    0.017437
N     0.348695    2.182083    0.270618
H     0.450604    2.388026    1.266870
H     -0.434498    2.759507    -0.045967
H     1.171662    2.600621    -0.170690
N     2.218555    -0.030802    0.289389
H     2.646371    -0.934969    0.074918
H     2.454111    0.151096    1.267606
H     2.760866    0.647420    -0.250874
N     -0.075471    -1.961398    -0.222379
H     -0.313456    -2.235333    -1.178390
H     -0.824478    -2.334966    0.365455
H     0.744766    -2.526494    0.009658
N     -1.927072    0.267236    -0.280503
H     -2.307413    -0.327209    -1.021148
H     -2.264330    1.206902    -0.502287
H     -2.430944    -0.006044    0.566291
C     -0.573351    -0.448740    4.830348
C     -1.243960    0.548503    4.121442
C     -1.010357    0.677387    2.756448
N     -0.161324    -0.118507    2.063139
C     0.480587    -1.079187    2.768199
C     0.307419    -1.276696    4.133930
H     -0.732177    -0.576344    5.896580
H     -1.938576    1.221358    4.613348
H     -1.521607    1.452352    2.192843
H     1.161254    -1.715946    2.212557
H     0.855505    -2.067141    4.635937
N     0.457082    0.318620    -2.051122
H     0.627235    1.289915    -2.321423
H     -0.329311    0.025689    -2.636130
H     1.261573    -0.203164    -2.408135
