34

Fe     0.069068    -0.102564    0.075903
C     0.560372    2.966049    -0.331978
N     0.385215    1.829696    -0.205275
C     0.780917    4.397850    -0.493611
H     0.802816    4.657058    -1.557113
H     1.735165    4.682820    -0.038786
H     -0.025569    4.956749    -0.007995
C     3.126400    -0.581036    0.565093
N     2.001874    -0.393656    0.369060
C     4.543465    -0.817764    0.810261
H     5.090506    0.130272    0.788773
H     4.950594    -1.481771    0.040728
H     4.679011    -1.284995    1.791053
C     -0.426503    -3.170656    0.466407
N     -0.245675    -2.036378    0.333474
C     -0.654497    -4.600917    0.627457
H     0.260739    -5.088476    0.978252
H     -0.946666    -5.041162    -0.331533
H     -1.452308    -4.773302    1.356977
C     -2.999079    0.320070    -0.400399
N     -1.862473    0.170815    -0.245819
C     -4.431290    0.507834    -0.595285
H     -4.987972    -0.091062    0.132792
H     -4.716832    0.194920    -1.604883
H     -4.691420    1.562874    -0.462098
C     -0.367336    0.374670    3.132398
N     -0.204788    0.203787    2.000287
C     -0.571890    0.589016    4.559917
H     -1.642981    0.634342    4.781507
H     -0.104757    1.529889    4.868094
H     -0.125535    -0.232965    5.128743
S     0.404135    -0.540449    -2.281341
H     -0.432514    0.342559    -2.866588
H     1.505331    0.188950    -2.559486
