22

Fe     0.249537    -0.251247    -0.035625
C     0.645131    2.016048    0.369955
O     0.877396    3.033103    0.807262
C     2.533291    -0.597305    -0.343198
O     3.640233    -0.796936    -0.221959
C     -0.137561    -2.539267    -0.337400
O     -0.339532    -3.644082    -0.196956
C     -2.020304    0.084844    0.399091
O     -3.034754    0.151921    0.897107
O     0.532581    -0.513042    1.729643
H     0.239583    -1.034602    2.490432
C     -0.448854    0.574864    -4.917518
C     -1.057411    1.391336    -3.963752
C     -0.845925    1.118942    -2.617307
N     -0.076008    0.097605    -2.187898
C     0.508955    -0.685583    -3.117844
C     0.349658    -0.483872    -4.483747
H     -0.593598    0.760114    -5.977398
H     -1.686384    2.226508    -4.252535
H     -1.304839    1.735925    -1.850341
H     1.125382    -1.500022    -2.748814
H     0.843373    -1.145186    -5.187614
