34

Fe     0.078220    0.072702    0.047844
C     1.444014    2.847117    0.590444
N     0.944182    1.828974    0.362614
C     2.073565    4.128922    0.881725
H     2.242518    4.684873    -0.046227
H     3.035193    3.967535    1.379585
H     1.427330    4.720587    1.538235
C     2.856050    -1.366815    0.277243
N     1.840434    -0.822243    0.174443
C     4.134207    -2.054133    0.409712
H     4.939669    -1.325326    0.546387
H     4.336783    -2.645394    -0.489286
H     4.108222    -2.723075    1.276129
C     -1.291420    -2.673905    -0.570934
N     -0.780969    -1.669385    -0.313760
C     -1.936578    -3.938388    -0.900329
H     -1.214645    -4.758003    -0.827232
H     -2.328414    -3.899920    -1.921931
H     -2.762984    -4.128891    -0.208176
C     -2.722461    1.447292    -0.249546
N     -1.679348    0.959538    -0.141853
C     -4.037854    2.059598    -0.385209
H     -4.759542    1.535239    0.249562
H     -4.371952    2.001002    -1.426236
H     -3.995343    3.110860    -0.082711
C     -0.392951    -0.349073    3.114971
N     -0.214462    -0.183864    1.984738
C     -0.616720    -0.559344    4.540076
H     -1.620123    -0.219362    4.815621
H     0.121521    0.001950    5.121739
H     -0.523698    -1.623621    4.779050
O     0.323458    0.283596    -1.954035
H     0.106930    1.176988    -2.273129
H     1.237692    0.115207    -2.242246
