13

Fe     0.000000    -0.000000    0.000000
S     0.000053    2.525025    -0.000011
C     0.000095    4.095741    -0.000020
S     2.525025    -0.000053    -0.000003
C     4.095740    -0.000095    -0.000006
S     -0.000053    -2.525025    0.000011
C     -0.000095    -4.095741    0.000019
S     -2.525025    0.000053    0.000003
C     -4.095741    0.000095    0.000006
S     0.000004    0.000010    2.525025
C     0.000007    0.000018    4.095741
S     -0.000004    -0.000010    -2.525025
C     -0.000007    -0.000017    -4.095741
