13

Fe     0.000031    -0.000244    0.000189
O     0.329164    1.964989    0.296987
C     0.522173    3.090712    0.469864
O     1.965258    -0.297113    -0.328927
C     3.091017    -0.469657    -0.522025
O     -0.328783    -1.965481    -0.297010
C     -0.521368    -3.091193    -0.470432
O     -1.965192    0.297062    0.329019
C     -3.090936    0.470147    0.521724
O     0.296876    -0.329332    1.965385
C     0.469337    -0.522780    3.091098
O     -0.297251    0.328550    -1.965081
C     -0.470275    0.521631    -3.090768
