23

Fe     -0.019789    -0.217937    -0.193957
P     0.347531    2.116340    -0.541220
H     -0.133432    2.984027    0.459626
H     -0.234798    2.698755    -1.685365
H     1.662910    2.607186    -0.673211
P     2.293709    -0.562172    0.158915
H     2.808975    -0.483159    1.470460
H     3.201431    0.300751    -0.490459
H     2.848737    -1.802413    -0.222729
P     -0.419781    -2.516795    0.197959
H     0.334326    -3.156998    1.203979
H     -0.230246    -3.442577    -0.849767
H     -1.710349    -2.910012    0.614032
P     -2.333822    0.130902    -0.594991
H     -3.240331    -0.358163    0.368235
H     -2.891558    -0.454422    -1.751124
H     -2.833971    1.441646    -0.740097
S     -0.360175    0.280965    2.162116
H     -1.479045    -0.352025    2.581319
H     0.460400    -0.513822    2.883759
S     0.264931    -0.503560    -2.595892
H     1.478659    -1.039612    -2.854382
H     -0.398206    -1.626827    -2.948838
