47

Fe     -0.284019    0.045716    -0.029928
N     -0.009389    1.976932    0.289604
C     0.145925    3.108980    0.471282
C     0.338939    4.536303    0.696287
H     0.659790    5.021300    -0.231376
H     -0.597947    4.992042    1.032533
H     1.105158    4.695661    1.461683
N     1.649945    -0.265736    0.241874
C     2.783911    -0.436631    0.396277
C     4.213137    -0.648252    0.592754
H     4.707413    -0.788532    -0.373999
H     4.654192    0.220987    1.091184
H     4.379967    -1.535839    1.211470
N     -0.552804    -1.891654    -0.348579
C     -0.697765    -3.025582    -0.527537
C     -0.879428    -4.455289    -0.748236
H     -1.645514    -4.624198    -1.511528
H     0.060671    -4.905335    -1.082850
H     -1.191194    -4.941487    0.181656
N     -2.222304    0.350534    -0.298311
C     -3.355587    0.526507    -0.451001
C     -4.783477    0.750313    -0.641701
H     -5.248327    1.030397    0.309005
H     -4.943203    1.556143    -1.365274
H     -5.259658    -0.160853    -1.017298
C     -1.015315    -0.701666    4.722414
C     -1.842614    -1.295585    3.770130
C     -1.605934    -1.047760    2.422408
N     -0.606235    -0.254652    1.984279
C     0.186568    0.319173    2.912899
C     0.018394    0.122368    4.279260
H     -1.172134    -0.876013    5.782339
H     -2.662528    -1.944167    4.060641
H     -2.231843    -1.495159    1.660422
H     0.980355    0.955104    2.541224
H     0.690084    0.608729    4.978861
C     0.477197    0.753248    -4.778953
C     -0.369772    1.593356    -4.057164
C     -0.560771    1.354877    -2.700798
N     0.035798    0.339736    -2.042252
C     0.851817    -0.469482    -2.748320
C     1.097121    -0.299264    -4.106428
H     0.647648    0.913110    -5.839172
H     -0.877988    2.425689    -4.532605
H     -1.209954    1.992186    -2.112982
H     1.316213    -1.279859    -2.200382
H     1.763125    -0.983516    -4.621523
