29

Fe     -0.004774    0.006691    -0.016197
C     0.387614    2.272474    0.342272
N     0.533682    3.410911    0.555524
C     0.715153    4.793039    0.825356
H     1.388611    5.227119    0.081120
H     1.143587    4.919459    1.823552
H     -0.249777    5.305438    0.778014
C     2.272542    -0.323750    -0.362662
N     3.407345    -0.553431    -0.512364
C     4.788306    -0.836801    -0.681838
H     4.911351    -1.633162    -1.421122
H     5.218108    -1.155065    0.272043
H     5.306121    0.060342    -1.032405
C     -0.393581    -2.263551    -0.353279
N     -0.528701    -3.409812    -0.528467
C     -0.692412    -4.804575    -0.738111
H     -1.654696    -4.991950    -1.222617
H     -0.660127    -5.327346    0.221885
H     0.110690    -5.175252    -1.381153
C     -2.282053    0.337563    0.326323
N     -3.419083    0.561916    0.466864
C     -4.803572    0.835000    0.623528
H     -4.933513    1.822699    1.074598
H     -5.255261    0.081186    1.274381
H     -5.294916    0.815741    -0.353294
C     0.294589    -0.351056    2.062906
N     0.471245    -0.544793    3.204641
C     -0.302868    0.361999    -2.094449
N     -0.478173    0.553394    -3.236773
