17

Fe     -0.000206    0.002170    0.000023
C     -0.000261    1.928598    -0.000618
O     -0.000797    3.057278    -0.001079
C     1.927024    -0.014149    0.001146
O     3.055656    -0.028000    0.001789
C     -0.003398    -1.925170    0.000532
O     -0.005687    -3.053938    0.000849
C     -1.927424    -0.010736    -0.001084
O     -3.056092    -0.022423    -0.001714
N     0.000008    0.004759    2.084912
H     -0.828527    0.451252    2.491304
H     0.035438    -0.926233    2.513290
H     0.795081    0.511080    2.488000
N     0.001954    0.004070    -2.084876
H     -0.823459    0.455701    -2.491942
H     0.800504    0.505210    -2.487561
H     0.031714    -0.927247    -2.512975
