40

Fe     0.103408    -0.123883    0.048941
N     0.432978    1.805299    -0.268170
C     0.653639    2.927338    -0.447428
C     0.931123    4.342064    -0.665054
H     1.877648    4.460260    -1.202354
H     0.128861    4.796487    -1.255317
H     1.002788    4.859621    0.297144
N     2.044330    -0.396196    0.332171
C     3.183465    -0.525200    0.493159
C     4.617115    -0.685854    0.704538
H     5.168828    0.039639    0.097983
H     4.858407    -0.521024    1.759716
H     4.928641    -1.696251    0.420879
N     -0.221386    -2.061245    0.323849
C     -0.435137    -3.188725    0.475885
C     -0.704267    -4.607883    0.674235
H     0.144944    -5.204054    0.324968
H     -0.869388    -4.811392    1.737303
H     -1.598336    -4.901678    0.114823
N     -1.837543    0.137516    -0.272478
C     -2.974448    0.255084    -0.454931
C     -4.407982    0.402788    -0.676813
H     -4.859226    0.955833    0.153395
H     -4.591098    0.947438    -1.608603
H     -4.879326    -0.583141    -0.742400
C     -0.540837    0.691724    4.790432
C     -1.142430    1.511542    3.836277
C     -0.931495    1.244866    2.488035
N     -0.166520    0.222050    2.053291
C     0.413203    -0.565791    2.982577
C     0.252346    -0.366897    4.349264
H     -0.685998    0.873481    5.850800
H     -1.768143    2.349059    4.126131
H     -1.384153    1.864924    1.723858
H     1.024346    -1.379256    2.611051
H     0.743425    -1.033753    5.050072
N     0.337111    -0.462109    -1.962100
H     -0.058702    0.291618    -2.524749
H     -0.113014    -1.327457    -2.262495
H     1.323059    -0.536840    -2.214090
