31

Fe     0.033889    0.027706    0.018601
C     0.313433    1.916309    -0.341782
N     0.486671    3.041660    -0.574276
C     0.705832    4.422559    -0.885624
H     1.435969    4.493059    -1.695466
H     1.086586    4.933847    0.001847
H     -0.239037    4.873606    -1.197884
C     1.936970    -0.275206    -0.225154
N     3.078795    -0.445104    -0.358774
C     4.489888    -0.643176    -0.505311
H     4.669396    -1.614022    -0.973283
H     4.956834    -0.615950    0.482350
H     4.899926    0.152539    -1.131803
C     -0.225199    -1.857897    0.365614
N     -0.372622    -2.992851    0.573228
C     -0.544463    -4.392136    0.829520
H     -1.513595    -4.713124    0.440021
H     -0.504134    -4.565858    1.907695
H     0.256823    -4.947891    0.336582
C     -1.857885    0.349713    0.266130
N     -2.994303    0.549038    0.413725
C     -4.393806    0.801576    0.589930
H     -4.553390    1.876969    0.698961
H     -4.742952    0.281276    1.485104
H     -4.935837    0.434774    -0.285159
S     0.465793    0.422774    2.366706
H     -0.434036    -0.361901    2.998296
H     -0.221179    1.556323    2.625711
S     -0.316625    -0.303038    -2.352752
H     -1.438847    -1.052295    -2.410779
H     0.489872    -1.345119    -2.648778
