19

Fe     -0.004180    -0.006543    -0.052479
P     -0.419190    2.649181    -0.304406
H     -1.457099    3.241870    0.457009
H     0.595971    3.542937    0.117349
H     -0.718983    3.300162    -1.527212
P     2.649945    0.375349    -0.395673
H     3.219193    1.618088    -0.021973
H     3.543172    -0.424427    0.359033
H     3.322981    0.252357    -1.637188
P     0.412172    -2.641534    0.368869
H     1.738013    -3.143659    0.401926
H     -0.005282    -3.249263    1.578578
H     -0.103620    -3.627085    -0.508363
P     -2.660565    -0.390755    0.288674
H     -3.224625    -1.635751    -0.085527
H     -3.349159    -0.261885    1.521251
H     -3.544786    0.404426    -0.481213
Cl     0.373247    0.381418    2.233291
Cl     -0.368554    -0.386103    -2.325102
