151
03/24/2023 16:57, XYZ structure generated by mol3D Class, molSimplify
Fe     0.029568    -0.039313    -0.004231
C     0.294926    1.835870    -0.315772
N     0.452845    2.977879    -0.493946
C     0.633909    4.342343    -0.686933
C     0.217539    5.240512    0.305114
C     0.405461    6.600432    0.101873
C     1.002651    7.106435    -1.069790
C     1.184204    8.623110    -1.240677
C     -0.206879    9.302326    -1.214101
C     2.046349    9.166517    -0.074915
C     1.880780    8.982925    -2.566759
C     1.405789    6.175608    -2.041235
C     1.228625    4.805369    -1.863866
H     -0.242645    4.870701    1.215895
H     0.080609    7.285201    0.877997
H     -0.838612    8.943273    -2.034168
H     -0.094677    10.386430    -1.323392
H     -0.734556    9.117199    -0.272725
H     3.037669    8.699961    -0.063690
H     1.579517    8.993198    0.900228
H     2.182845    10.247556    -0.186526
H     2.881195    8.540942    -2.636388
H     1.999330    10.068879    -2.632776
H     1.297874    8.665704    -3.438996
H     1.868799    6.514628    -2.959905
H     1.545994    4.101838    -2.627097
C     1.900730    -0.339263    -0.292413
N     3.041325    -0.504828    -0.473649
C     4.402022    -0.683237    -0.693911
C     4.906342    -1.970271    -0.923133
C     6.267074    -2.129650    -1.145870
C     7.157796    -1.037792    -1.150198
C     8.655121    -1.272672    -1.405980
C     9.213592    -2.214214    -0.310932
C     8.834061    -1.932329    -2.795246
C     9.464919    0.037968    -1.379894
C     6.615283    0.236072    -0.914454
C     5.254273    0.424582    -0.687153
H     4.237016    -2.824692    -0.926445
H     6.643566    -3.131857    -1.321559
H     9.101399    -1.773108    0.685699
H     10.280292    -2.393696    -0.483301
H     8.712074    -3.187701    -0.308461
H     8.452464    -1.285388    -3.593002
H     8.317161    -2.895161    -2.863108
H     9.897179    -2.113023    -2.987188
H     9.134782    0.740148    -2.153764
H     10.520221    -0.182314    -1.568040
H     9.405463    0.537681    -0.406351
H     7.258343    1.107526    -0.906467
H     4.854238    1.417430    -0.507325
C     -0.232415    -1.914162    0.314043
N     -0.384057    -3.054717    0.506180
C     -0.549910    -4.415390    0.736089
C     -1.839323    -4.944794    0.878147
C     -1.985776    -6.305523    1.110041
C     -0.878723    -7.172153    1.204357
C     -1.099135    -8.670498    1.465810
C     -1.800456    -8.844028    2.835276
C     -1.994954    -9.257134    0.347661
C     0.224213    -9.459341    1.492091
C     0.397336    -6.604649    1.055405
C     0.572945    -5.242784    0.824488
H     -2.705504    -4.294925    0.805302
H     -2.989687    -6.702033    1.219296
H     -1.183974    -8.445794    3.648869
H     -1.973627    -9.907473    3.032844
H     -2.771402    -8.338390    2.867882
H     -1.527463    -9.141370    -0.636410
H     -2.979339    -8.779076    0.313444
H     -2.154983    -10.326435    0.522696
H     0.761629    -9.390637    0.539415
H     0.013482    -10.518186    1.671205
H     0.889501    -9.119991    2.294071
H     1.280383    -7.228441    1.120241
H     1.567604    -4.822522    0.714923
C     -1.840088    0.279163    0.275135
N     -2.977511    0.481778    0.438106
C     -4.332062    0.735384    0.619127
C     -4.921822    1.832983    -0.022557
C     -6.276377    2.071950    0.163254
C     -7.077490    1.245219    0.975667
C     -8.573833    1.555035    1.141221
C     -8.732182    2.960338    1.771958
C     -9.252488    1.531235    -0.250198
C     -9.286748    0.532919    2.046335
C     -6.450297    0.157250    1.604517
C     -5.092971    -0.105415    1.436140
H     -4.322437    2.481398    -0.653786
H     -6.721053    2.925260    -0.337807
H     -8.264494    3.004225    2.761768
H     -9.795003    3.197828    1.889381
H     -8.285569    3.743899    1.150943
H     -9.150155    0.548109    -0.722787
H     -8.830899    2.279699    -0.929382
H     -10.321498    1.746777    -0.146931
H     -9.233126    -0.483825    1.640516
H     -10.346219    0.795188    2.126659
H     -8.875793    0.524527    3.062365
H     -7.023771    -0.506005    2.240435
H     -4.626771    -0.952338    1.929691
C     0.353421    0.232982    1.869413
N     0.544397    0.396719    3.008398
C     0.765597    0.593935    4.366328
C     2.072893    0.774380    4.837446
C     2.275903    0.974263    6.195881
C     1.209238    1.001267    7.116024
C     1.492782    1.228905    8.609230
C     2.423990    0.104981    9.125687
C     2.188018    2.600556    8.789220
C     0.205385    1.221492    9.456259
C     -0.085950    0.814081    6.606146
C     -0.318621    0.611938    5.248109
H     2.908669    0.756566    4.145254
H     3.292911    1.112990    6.547235
H     1.958247    -0.879888    9.009464
H     2.634776    0.256324    10.189847
H     3.384079    0.089339    8.599146
H     1.547407    3.417900    8.439745
H     3.136449    2.657220    8.244682
H     2.404682    2.771344    9.849256
H     -0.487160    2.016133    9.156591
H     0.460312    1.390180    10.507043
H     -0.318773    0.260732    9.398659
H     -0.939137    0.825132    7.273313
H     -1.327178    0.469563    4.873157
C     -0.306276    -0.318464    -1.874681
N     -0.524782    -0.494627    -3.006817
C     -0.809876    -0.706222    -4.350413
C     0.206339    -1.118656    -5.222365
C     -0.100311    -1.328233    -6.560218
C     -1.400506    -1.139061    -7.068610
C     -1.686149    -1.394276    -8.557727
C     -0.784542    -0.472003    -9.414451
C     -1.369029    -2.874220    -8.884422
C     -3.155572    -1.114837    -8.925025
C     -2.391337    -0.723407    -6.164335
C     -2.111978    -0.506366    -4.817543
H     1.214712    -1.271139    -4.851088
H     0.695051    -1.647897    -7.225149
H     -0.988428    0.584451    -9.207601
H     -0.974283    -0.651152    -10.478194
H     0.280231    -0.653179    -9.234396
H     -1.995594    -3.553236    -8.295510
H     -0.321119    -3.122082    -8.685977
H     -1.561386    -3.070384    -9.944740
H     -3.847789    -1.763119    -8.375816
H     -3.308802    -1.306246    -9.991732
H     -3.432441    -0.071183    -8.737733
H     -3.406665    -0.562826    -6.505409
H     -2.892501    -0.187323    -4.134134
