11

Fe     0.001921    -0.001677    0.021437
C     -0.358998    2.326156    0.311082
O     -0.572598    3.439265    0.262493
C     2.301600    0.393746    -0.422436
O     3.345957    0.584001    -0.822452
C     0.359979    -2.328827    -0.287240
O     0.570033    -3.443386    -0.262436
C     -2.300261    -0.391706    0.449488
O     -3.352299    -0.576142    0.831681
F     0.274440    -0.299461    1.775867
F     -0.269768    0.298025    -1.734077
