25

Fe     -0.104749    -0.077021    -0.122765
O     -0.337813    1.866790    -0.550594
H     -1.257541    2.185189    -0.429149
O     0.400763    2.719179    0.366343
H     0.831166    3.336420    -0.263595
O     1.853695    0.124221    0.165497
H     1.934051    0.660060    0.995590
O     2.437519    0.957802    -0.872713
H     3.327477    0.551008    -0.962931
O     0.177846    -2.039237    0.235973
H     0.833689    -2.284055    -0.464403
O     -0.976267    -2.803579    -0.224549
H     -1.027409    -3.510283    0.455696
O     -2.050798    -0.364135    -0.474998
H     -2.149262    -1.345532    -0.566315
O     -2.810440    -0.101347    0.739700
H     -3.677523    0.176098    0.372113
O     -0.444839    0.369943    1.824305
H     -0.848923    -0.329369    2.381057
O     0.791961    0.648954    2.538202
H     0.573035    1.508459    2.961452
O     0.244967    -0.380947    -2.078516
H     0.890442    0.325237    -2.318038
O     1.077766    -1.565956    -2.260912
H     0.682234    -1.953652    -3.072825
