28

Fe     0.007659    -0.017073    0.165870
O     -0.335492    2.084121    0.269454
H     0.467070    2.637540    0.277399
H     -0.993101    2.525603    0.835502
O     2.066179    0.525530    -0.129005
H     2.385293    0.546333    -1.049059
H     2.843651    0.411337    0.444299
O     0.351998    -2.070738    -0.317336
H     0.962399    -2.661992    0.157386
H     -0.466713    -2.575931    -0.474112
O     -2.053785    -0.535057    -0.202508
H     -2.795155    -0.616491    0.421864
H     -2.430550    -0.314484    -1.073003
C     0.044990    -0.296608    2.325124
N     0.066693    -0.430405    3.478044
C     0.088925    -0.594333    4.902198
H     0.748480    -1.429102    5.152144
H     -0.925929    -0.801235    5.250467
H     0.461998    0.326267    5.358056
O     -0.017946    0.171431    -2.142018
C     0.487290    -0.688601    -3.124285
C     0.263120    -0.161716    -4.348207
C     -0.415941    1.093245    -4.155827
C     -0.568299    1.262880    -2.824135
H     0.930135    -1.602126    -2.763832
H     0.542660    -0.608192    -5.292689
H     -0.975237    2.041223    -2.199695
H     -0.741118    1.778372    -4.926708
