43

Fe     -0.012510    -0.034152    0.020365
N     -0.050926    2.075277    0.276483
H     -0.531963    2.216882    1.164780
H     -0.702109    2.463375    -0.408429
C     1.158516    2.949260    0.289071
H     1.806544    2.663295    1.121540
H     1.707338    2.838256    -0.648977
H     0.896320    4.004111    0.411707
N     2.103806    0.006004    -0.210459
H     2.453715    0.735921    0.411016
H     2.283138    0.380827    -1.143557
C     2.995815    -1.179986    -0.042854
H     2.837984    -1.632851    0.940059
H     2.775411    -1.922229    -0.812564
H     4.051730    -0.907069    -0.126315
N     0.025932    -2.143118    -0.236941
H     0.674585    -2.532224    0.449835
H     0.509981    -2.283929    -1.123749
C     -1.183851    -3.016546    -0.254712
H     -1.735097    -2.907218    0.682082
H     -1.829605    -2.728406    -1.088190
H     -0.921765    -4.071244    -0.378854
N     -2.128669    -0.075323    0.251123
H     -2.306723    -0.464285    1.178620
H     -2.479812    -0.795932    -0.380534
C     -3.020023    1.113572    0.102299
H     -2.795792    1.845220    0.880947
H     -2.864606    1.578663    -0.875252
H     -4.075955    0.840733    0.185676
N     0.230876    -0.348582    2.107524
H     1.233712    -0.456393    2.271696
H     -0.146509    -1.277865    2.308191
C     -0.289755    0.568439    3.166438
H     0.216869    1.533769    3.100174
H     -1.365074    0.718216    3.037555
H     -0.118848    0.165992    4.169075
N     -0.255355    0.281632    -2.066361
H     0.130315    1.207374    -2.267738
H     -1.257397    0.398357    -2.229325
C     0.255584    -0.640626    -3.125467
H     1.329655    -0.800264    -2.997620
H     -0.259762    -1.601239    -3.058057
H     0.087429    -0.237053    -4.128106
