33

Fe     -0.036683    0.037605    0.397934
C     -0.358309    2.243639    0.757241
N     -0.564142    3.387342    0.669128
C     -0.824584    4.776712    0.491585
H     -0.925187    4.987373    -0.576392
H     0.003042    5.359179    0.904228
H     -1.750869    5.042985    1.006864
C     2.165727    0.405923    0.060752
N     3.218680    0.627158    -0.387158
C     4.472601    0.903727    -1.004317
H     4.331948    0.961413    -2.086893
H     5.180449    0.105321    -0.767747
H     4.859458    1.856251    -0.633546
C     0.288780    -2.169484    0.032141
N     0.410063    -3.238843    -0.415088
C     0.544133    -4.518840    -1.026000
H     0.244566    -4.447045    -2.074909
H     -0.095715    -5.239025    -0.509854
H     1.585278    -4.845396    -0.964119
C     -2.243219    -0.330920    0.721148
N     -3.394931    -0.475449    0.616772
C     -4.796250    -0.639668    0.419435
H     -5.339604    0.065473    1.053485
H     -5.084533    -1.661380    0.679243
H     -5.033910    -0.447841    -0.630274
C     0.344119    -0.294096    2.678842
N     0.531704    -0.459987    3.816013
C     0.761778    -0.663428    5.208328
H     1.745117    -1.118735    5.349838
H     -0.009983    -1.324889    5.609729
H     0.725394    0.298656    5.725396
C     -0.382239    0.326134    -1.633659
N     -0.572704    0.490152    -2.776381
