25

Fe     0.005075    -0.166961    -0.133588
O     0.133414    1.919516    -0.503185
H     -0.653534    2.483114    -0.400877
P     1.545209    2.921077    -0.865681
H     1.783829    2.356865    -2.148846
P     3.023636    1.565031    0.136171
H     2.432337    1.730443    1.415605
O     2.167153    0.072287    -0.189574
H     2.730783    -0.520461    -0.716557
O     0.223512    -2.147516    0.638696
H     -0.089053    -2.946717    0.179042
P     0.749409    -2.550345    2.268849
H     1.868460    -1.677282    2.205812
P     -0.634233    -1.026140    3.171787
H     0.244868    -0.728702    4.254590
O     -0.132544    0.237617    2.050358
H     -0.575013    1.076573    2.273945
O     -2.165238    -0.258686    -0.344941
H     -2.616709    -0.463020    0.495327
P     -2.948662    -1.128969    -1.670941
H     -3.924854    -0.149089    -2.017652
P     -1.484951    -0.409894    -3.213838
H     -1.503675    0.949911    -2.797273
O     -0.103898    -0.806483    -2.209682
H     0.506117    -1.392005    -2.692223
