26

Fe     -0.000313    0.000472    -0.007563
C     0.032192    1.899960    -0.153565
O     0.047956    3.016334    -0.332946
C     1.902987    -0.020541    0.089122
O     3.028439    -0.025372    0.185494
C     -0.032418    -1.898936    -0.153744
O     -0.047726    -3.015376    -0.333159
C     -1.903623    0.021303    0.089542
O     -3.029116    0.025765    0.186106
C     -0.000574    0.000513    -1.971768
N     -0.000502    0.000235    -3.128927
C     0.000771    -0.001047    -4.566194
H     -0.609697    -0.838027    -4.914619
H     1.031000    -0.111626    -4.913884
H     -0.418921    0.945454    -4.916386
C     -0.000175    0.000399    4.879061
C     -0.122614    1.191559    4.164001
C     -0.120585    1.155103    2.776426
N     -0.000078    0.000343    2.070742
C     0.120478    -1.154396    2.776469
C     0.122412    -1.190778    4.164054
H     -0.000322    0.000414    5.964653
H     -0.220377    2.147356    4.667490
H     -0.222252    2.078955    2.221983
H     0.222198    -2.078294    2.222098
H     0.220283    -2.146528    4.667611
