19

Fe     0.000064    0.000101    0.000586
C     0.001220    2.258237    -0.002186
N     -0.008248    3.418420    -0.005274
H     -0.018008    4.426820    -0.008044
C     2.294160    0.000116    0.000189
N     3.453293    -0.009050    0.008771
H     4.462158    -0.018327    0.017284
C     -0.000993    -2.258115    0.002933
N     0.008671    -3.418297    0.005871
H     0.018565    -4.426696    0.008415
C     -2.294041    0.000179    0.000664
N     -3.453173    0.009544    -0.007839
H     -4.462034    0.018984    -0.016511
C     -0.000834    -0.002756    2.258224
N     0.007982    -0.005794    3.418423
H     0.016984    -0.008494    4.426824
C     0.000832    0.002621    -2.257199
N     -0.008118    0.005446    -3.417401
H     -0.017253    0.007983    -4.425801
