42

Fe     -0.052758    0.057488    -0.023491
N     0.312654    2.207832    -0.333943
C     0.529495    3.336588    -0.472327
C     0.802992    4.756720    -0.647889
H     1.121689    4.951198    -1.677000
H     -0.098352    5.340622    -0.435879
H     1.598641    5.069231    0.036032
N     2.102342    -0.233678    0.364101
C     3.233847    -0.350653    0.580212
C     4.658396    -0.500432    0.848391
H     5.234705    0.127956    0.161774
H     4.879454    -0.200706    1.877670
H     4.956722    -1.544567    0.709993
N     -0.418429    -2.086365    0.327080
C     -0.638088    -3.208238    0.509820
C     -0.913930    -4.620604    0.736772
H     -0.052399    -5.223678    0.432723
H     -1.115021    -4.796202    1.798383
H     -1.787163    -4.927600    0.152224
N     -2.208197    0.367098    -0.373018
C     -3.348363    0.501293    -0.523548
C     -4.782847    0.670527    -0.716357
H     -5.110875    1.618175    -0.277526
H     -5.018977    0.670572    -1.785250
H     -5.322290    -0.150808    -0.233823
N     -0.379916    0.412053    2.137859
C     -0.550183    0.604183    3.266530
C     -0.763844    0.846718    4.687740
H     -1.823679    1.041984    4.879357
H     -0.451442    -0.027264    5.267971
H     -0.179078    1.714370    5.009602
C     0.683097    -0.793991    -4.890366
C     -0.155612    0.239902    -4.472722
C     -0.333345    0.449070    -3.109604
N     0.271149    -0.302079    -2.166981
C     1.081137    -1.297656    -2.580280
C     1.312538    -1.577314    -3.922547
H     0.842766    -0.984903    -5.947215
H     -0.665787    0.875283    -5.188975
H     -0.979713    1.242632    -2.749411
H     1.555119    -1.883053    -1.799541
H     1.973431    -2.391811    -4.199739
