31

Fe     0.000766    -0.000425    -0.000100
O     0.001375    -0.000293    1.948879
H     0.565115    0.565207    2.511432
H     -0.575551    -0.550950    2.512751
O     0.000913    0.001292    -1.948709
H     -0.570086    -0.554245    -2.513746
H     0.566110    0.564520    -2.511970
C     0.050687    1.991314    0.001105
N     0.048748    3.147227    0.000208
C     0.035318    4.587477    -0.000231
H     0.870087    4.944118    -0.609518
H     0.142710    4.933738    1.031531
H     -0.916329    4.926618    -0.418115
C     1.995607    0.007397    0.001438
N     3.151636    -0.000998    -0.000135
C     4.592397    -0.009037    -0.001096
H     4.936729    -0.844735    -0.616445
H     4.937210    -0.129288    1.029854
H     4.945400    0.940498    -0.412456
C     -0.049028    -1.992111    0.000715
N     -0.047506    -3.148004    0.000104
C     -0.034965    -4.588258    -0.000060
H     -0.869949    -4.944440    -0.609304
H     -0.142572    -4.934348    1.031728
H     0.916438    -4.928266    -0.417765
C     -1.994265    -0.009729    0.000389
N     -3.150296    -0.001552    -0.000674
C     -4.591070    0.006718    -0.002483
H     -4.939838    -0.607459    -0.837400
H     -4.935481    1.037924    -0.116414
H     -4.940308    -0.409909    0.946482
