12

Fe     -0.077676    -0.077687    -0.093091
C     -0.070955    2.231895    -0.335927
O     -0.078320    3.337886    -0.530871
C     2.231934    -0.071861    -0.335766
O     3.337928    -0.079782    -0.530673
C     -0.002505    -2.343045    0.395030
O     0.023931    -3.452676    0.565647
C     -2.343068    -0.001575    0.394776
O     -3.452703    0.025390    0.565277
C     0.298384    0.298425    2.248484
O     0.477859    0.477913    3.343275
F     -0.344807    -0.344889    -1.757578
