21

Fe     0.013701    0.000707    -0.171229
C     0.046945    0.004440    2.315651
O     0.061804    0.007832    3.440201
O     -0.012199    2.029239    0.077006
H     0.764395    2.630011    0.113875
H     -0.813427    2.594550    0.139737
O     2.061949    -0.003119    0.038958
H     2.714476    0.000193    -0.695933
H     2.577839    -0.008454    0.875141
O     -0.013118    -2.028507    0.077564
H     0.762777    -2.631086    0.096929
H     -0.814402    -2.591807    0.155140
O     -2.039952    0.000037    0.077583
H     -2.543121    -0.002685    0.920985
H     -2.701393    0.001594    -0.648465
C     0.003550    0.000426    -2.269725
N     -0.004889    0.000586    -3.429300
C     -0.017629    0.000393    -4.861623
H     -0.628041    -0.843640    -5.204406
H     1.015383    -0.113856    -5.215715
H     -0.434647    0.953144    -5.208019
