49

Fe     -0.000498    -0.000788    -0.000836
C     4.483707    -0.338392    -0.684965
C     4.759403    0.861808    -1.307233
C     3.742387    1.834471    -1.427255
C     3.975230    3.131409    -1.993342
C     2.994115    4.075204    -2.002713
C     1.701421    3.797615    -1.447018
C     0.688583    4.776985    -1.347501
C     -0.507050    4.460470    -0.735958
C     -0.701899    3.150994    -0.267879
N     0.210862    2.193953    -0.393602
C     1.418256    2.504046    -0.938883
C     2.455659    1.506214    -0.928991
N     2.187300    0.293496    -0.373988
C     3.178175    -0.579388    -0.227657
H     5.249299    -1.093104    -0.543086
H     5.754856    1.078492    -1.684184
H     4.959704    3.352316    -2.394575
H     3.180931    5.063655    -2.411438
H     0.870688    5.776457    -1.732012
H     -1.292837    5.197109    -0.610381
H     -1.622485    2.883340    0.236354
H     2.942262    -1.503572    0.285599
C     -4.484438    0.337210    0.681895
C     -4.760181    -0.862841    1.304426
C     -3.743116    -1.835375    1.425029
C     -3.975992    -3.132221    1.991327
C     -2.994797    -4.075927    2.001007
C     -1.702055    -3.798374    1.445428
C     -0.689276    -4.777828    1.346017
C     0.506350    -4.461390    0.734425
C     0.701322    -3.151970    0.266265
N     -0.211372    -2.194856    0.391977
C     -1.418859    -2.504850    0.937216
C     -2.456308    -1.507048    0.927040
N     -2.187932    -0.294335    0.371922
C     -3.178826    0.578419    0.224923
H     -5.250114    1.091745    0.539553
H     -5.755721    -1.079535    1.681135
H     -4.960521    -3.353133    2.392425
H     -3.181601    -5.064323    2.409860
H     -0.871427    -5.777266    1.730602
H     1.292081    -5.198091    0.608870
H     1.621934    -2.884393    -0.237946
H     -2.942835    1.502547    -0.288409
C     0.274284    0.296965    2.009271
N     0.435496    0.468283    3.156089
C     -0.275379    -0.297174    -2.011121
N     -0.437405    -0.468770    -3.157784
