15

Fe     -0.000119    -0.000242    0.001801
O     -0.250534    1.933504    0.313112
H     -0.921178    2.304592    -0.291764
H     -0.568637    2.065340    1.229663
O     1.949490    0.157938    0.308676
H     2.351666    0.803963    -0.303777
H     2.143744    0.434167    1.225661
O     0.250298    -1.934002    -0.309715
H     0.567076    -2.065753    -1.226726
H     0.922160    -2.304334    0.294272
O     -1.949702    -0.159016    -0.304816
H     -2.350963    -0.808503    0.304565
H     -2.143392    -0.431639    -1.223042
Cl     -0.301790    -0.349039    2.200687
Cl     0.301714    0.348436    -2.197263
