12

Fe     0.031801    -0.035116    0.036739
C     0.354761    1.872083    -0.210544
O     0.545530    2.969896    -0.362707
C     1.941392    -0.324148    0.323629
O     3.044159    -0.498002    0.458408
C     -0.300771    -1.933163    0.336391
O     -0.493670    -3.028988    0.499796
C     -1.865222    0.235700    -0.342592
O     -2.951862    0.385024    -0.590897
C     -0.254387    0.282394    1.921892
O     -0.421658    0.469444    3.018567
Cl     0.369941    -0.395118    -2.148993
