23

Fe     -0.029299    0.030232    0.028811
P     -0.373845    2.464419    0.355415
H     0.479956    3.032045    1.321162
H     -1.656262    2.836857    0.803687
H     -0.177435    3.266827    -0.784400
P     2.386821    0.362700    -0.410337
H     2.815126    1.703765    -0.460468
H     2.847558    -0.169586    -1.629568
H     3.230350    -0.218268    0.556278
P     0.299090    -2.399403    -0.340679
H     -0.307574    -2.906532    -1.505450
H     -0.221294    -3.206510    0.689953
H     1.632715    -2.840188    -0.448910
P     -2.455797    -0.413111    0.331558
H     -3.304745    0.490498    -0.335550
H     -2.890779    -0.360000    1.670295
H     -2.915920    -1.668715    -0.110256
N     0.335789    -0.161557    2.061575
H     0.540030    -1.121296    2.357037
H     -0.454897    0.123210    2.649045
H     1.126987    0.389979    2.410820
C     -0.355324    0.298811    -1.821871
O     -0.551237    0.465839    -2.922779
