16

Fe     -0.001466    -0.003752    0.061966
C     0.061637    2.266760    0.048642
O     0.105454    3.385858    -0.113202
C     2.269291    0.055896    0.052988
O     3.388906    0.098076    -0.105583
C     -0.063080    -2.273489    0.056642
O     -0.106161    -3.393469    -0.099050
C     -2.271140    -0.062169    0.052347
O     -3.390747    -0.103436    -0.106615
N     -0.000626    0.000903    2.262403
C     0.000197    0.004001    3.421091
C     0.001641    0.007395    4.876579
H     0.755487    -0.694816    5.247270
H     0.234921    1.011676    5.244866
H     -0.982928    -0.292872    5.249428
S     -0.001385    -0.006563    -2.316551
