19

Fe     0.052223    0.022714    0.035303
O     0.330402    2.068672    0.286921
C     1.467949    2.523218    0.191232
H     1.690543    3.593702    0.313590
C     2.552819    1.437640    -0.124670
H     3.623171    1.659793    -0.248979
O     2.097874    0.300085    -0.218396
O     0.304466    -2.022773    0.312190
C     0.210482    -2.477172    1.449950
H     0.336176    -3.547136    1.673310
C     -0.106733    -1.391883    2.534735
H     -0.232079    -1.614517    3.604878
O     -0.200050    -0.254267    2.079900
O     -1.992189    0.274639    -0.242930
C     -2.446018    0.182672    -1.381127
H     -3.515898    0.309155    -1.604384
C     -1.360665    -0.134204    -2.465961
H     -1.583765    -0.259173    -3.536078
O     -0.223267    -0.228613    -2.010981
