21

Fe     -0.013327    0.013353    0.000275
N     -0.154103    2.140462    0.505999
H     -0.984371    2.377174    1.066866
H     0.641477    2.503005    1.050096
H     -0.213142    2.748296    -0.324301
N     2.120376    0.252698    -0.493534
H     2.351331    1.199447    -0.824049
H     2.741729    0.094709    0.313107
H     2.464559    -0.377609    -1.230900
N     0.235687    -2.166531    -0.170091
H     1.168106    -2.495325    0.114956
H     -0.423700    -2.714584    0.399605
H     0.114360    -2.511441    -1.133666
N     -2.186677    -0.247805    0.154659
H     -2.548159    -1.059069    -0.365925
H     -2.509116    -0.385116    1.123855
H     -2.729784    0.552525    -0.198461
C     0.360332    -0.329591    2.326499
O     0.538547    -0.494182    3.423117
C     -0.395164    0.366575    -2.321293
O     -0.578945    0.533002    -3.416686
