17

Fe     0.001637    -0.001663    -0.002153
Cl     0.382995    2.276470    0.341359
Cl     2.281601    -0.341565    -0.377264
Cl     -0.379667    -2.279401    -0.345803
Cl     -2.278564    0.338479    0.372807
C     0.440283    -0.488327    3.003032
N     0.277148    -0.311164    1.877062
C     0.645044    -0.708139    4.427901
H     -0.316215    -0.689670    4.951131
H     1.287851    0.076594    4.839158
H     1.120690    -1.679948    4.593458
C     -0.438968    0.487204    -3.006351
N     -0.274280    0.308406    -1.880866
C     -0.647303    0.710326    -4.430199
H     0.312497    0.693027    -4.956129
H     -1.123288    1.682602    -4.592026
H     -1.291468    -0.073225    -4.841593
