43

Fe     -0.035127    -0.117583    -0.004545
P     0.321259    2.510252    -0.443621
H     -0.240239    3.250111    0.617564
H     -0.519756    2.933830    -1.493254
C     1.933021    3.346962    -0.779849
H     2.617120    3.202472    0.060604
H     2.386130    2.948248    -1.691357
H     1.757859    4.419504    -0.912853
P     2.611925    -0.523793    -0.372130
H     3.332544    0.317191    0.501485
H     3.005137    0.030571    -1.608395
C     3.504479    -2.139614    -0.294590
H     3.376336    -2.600496    0.688398
H     3.133532    -2.816389    -1.068944
H     4.571347    -1.960638    -0.464396
P     -0.391585    -2.760734    0.437289
H     0.445962    -3.176398    1.493600
H     0.179310    -3.500593    -0.619432
C     -2.003355    -3.599221    0.767859
H     -2.460591    -3.199737    1.676953
H     -2.682582    -3.459929    -0.077328
H     -1.823484    -4.670664    0.904486
P     -2.684298    0.292135    0.368204
H     -3.072458    -0.264177    1.605092
H     -3.405577    -0.550659    -0.502909
C     -3.585747    1.903427    0.294282
H     -3.215138    2.582602    1.066556
H     -3.463319    2.365172    -0.688958
H     -4.651151    1.719879    0.467996
P     0.380895    0.152339    2.659108
H     1.576859    -0.493870    3.036800
H     -0.546176    -0.643146    3.365134
C     0.410077    1.750249    3.583512
H     1.216940    2.388280    3.213220
H     -0.545953    2.269356    3.475190
H     0.582815    1.544144    4.644932
P     -0.458582    -0.620330    -2.633058
H     -1.611778    -1.418321    -2.788739
H     0.515689    -1.522365    -3.110122
C     -0.598732    0.649500    -3.966167
H     -1.437382    1.321132    -3.764355
H     0.326216    1.228027    -4.038165
H     -0.772698    0.143589    -4.921567
