43

Fe     -0.017309    0.020619    -0.001040
P     -0.510389    2.377985    0.303731
H     -1.311913    2.601003    1.441380
H     -1.388924    2.820822    -0.702839
C     0.753713    3.717821    0.390246
H     1.423243    3.573148    1.242118
H     1.337910    3.766373    -0.532851
H     0.229444    4.671130    0.519405
P     2.346829    0.429656    0.341809
H     2.523612    1.168069    1.528003
H     2.843502    1.361978    -0.590852
C     3.677458    -0.844609    0.424012
H     3.513970    -1.529565    1.260206
H     3.737733    -1.410691    -0.509634
H     4.631491    -0.328426    0.577354
P     0.474219    -2.337244    -0.307681
H     1.366915    -2.776481    0.687879
H     1.260764    -2.561384    -1.455515
C     -0.789111    -3.678983    -0.373890
H     -1.360856    -3.725777    0.557059
H     -1.470078    -3.537627    -1.217187
H     -0.265283    -4.631934    -0.507434
P     -2.381173    -0.388687    -0.345751
H     -2.878073    -1.323201    0.584581
H     -2.557318    -1.124286    -1.533796
C     -3.712032    0.885538    -0.425401
H     -3.774127    1.447718    0.510471
H     -3.547407    1.573957    -1.258507
H     -4.665631    0.369665    -0.582472
P     -0.451449    -0.426423    2.345086
H     -0.704603    -1.791508    2.587141
H     -1.686028    0.121473    2.747342
C     0.700458    0.053334    3.701228
H     1.656842    -0.467533    3.602648
H     0.868895    1.133733    3.704094
H     0.246223    -0.231878    4.656482
P     0.417384    0.467617    -2.347503
H     1.649564    -0.085359    -2.750225
H     0.677001    1.831691    -2.588599
C     -0.736406    -0.006039    -3.704215
H     -0.909366    -1.085732    -3.707955
H     -1.690679    0.518626    -3.605294
H     -0.280732    0.278087    -4.659093
