53

Fe     0.029158    -0.098398    -0.012534
C     -0.041621    4.773767    -0.436614
C     0.892082    4.003701    -1.131884
C     0.881696    2.621977    -0.979378
N     -0.008069    1.973837    -0.186229
C     -0.917510    2.731731    0.479203
C     -0.959906    4.116947    0.385171
H     -0.053851    5.855742    -0.530383
H     1.627265    4.460266    -1.786671
H     1.618593    2.015751    -1.488964
H     -1.642122    2.208031    1.090338
H     -1.707094    4.666177    0.949071
C     4.889725    -0.050968    0.233410
C     4.129060    0.907626    0.906262
C     2.744098    0.862502    0.813240
N     2.081276    -0.088168    0.103519
C     2.831898    -1.022111    -0.539211
C     4.219782    -1.029830    -0.504617
H     5.974579    -0.037150    0.282755
H     4.597160    1.688659    1.496609
H     2.142426    1.618225    1.298978
H     2.298811    -1.794002    -1.077335
H     4.760998    -1.797977    -1.047637
C     -0.058635    -4.942569    0.401505
C     0.797174    -4.172099    1.191694
C     0.795950    -2.790241    1.046209
N     -0.010929    -2.143220    0.166780
C     -0.845602    -2.901890    -0.591884
C     -0.892266    -4.286719    -0.507472
H     -0.075531    -6.024883    0.491210
H     1.464184    -4.630979    1.914210
H     1.470584    -2.180476    1.632156
H     -1.505702    -2.374316    -1.269116
H     -1.575526    -4.836250    -1.147026
C     -4.853364    -0.061966    -0.292394
C     -4.190509    -0.876997    0.626859
C     -2.802025    -0.863729    0.668216
N     -2.049084    -0.079358    -0.144234
C     -2.700976    0.712509    -1.031981
C     -4.086531    0.743793    -1.136355
H     -5.937958    -0.053584    -0.348303
H     -4.736507    -1.520839    1.308610
H     -2.272107    -1.507973    1.358636
H     -2.093091    1.349537    -1.662290
H     -4.549738    1.395392    -1.870171
P     -0.111508    0.244098    2.428115
H     0.409419    1.449573    2.931492
H     0.525392    -0.692776    3.264650
H     -1.402553    0.261309    2.988159
P     0.179337    -0.438536    -2.445671
H     0.878716    0.518750    -3.203480
H     -1.043020    -0.489489    -3.141210
H     0.786253    -1.628506    -2.883524
