25

Fe     0.019488    -0.017922    -0.095281
P     0.457433    2.573576    -0.486879
H     -0.414710    3.374697    0.288424
P     1.556043    3.961219    -1.515401
H     2.335216    2.987765    -2.212360
P     2.617477    -0.417972    0.244917
H     3.408907    0.306449    -0.678071
P     4.013049    -1.416448    1.359999
H     3.044706    -2.061724    2.188355
P     -0.433717    -2.608798    0.271697
H     0.596218    -3.404794    -0.284724
P     -1.727107    -4.005630    1.024985
H     -2.658296    -3.039052    1.513577
P     -2.566051    0.335985    -0.609212
H     -3.071091    -0.634828    -1.506537
P     -4.190037    1.532469    -0.256900
H     -3.487995    2.404814    0.630064
P     -0.424397    0.425372    2.481520
H     -1.476144    -0.366428    3.001361
P     0.179305    1.507798    4.110388
H     1.197208    2.212228    3.397857
P     0.303302    -0.415716    -2.709403
H     -0.257916    0.642322    -3.463438
P     0.952857    -1.710360    -4.157367
H     1.454207    -2.674221    -3.230128
