24

Fe     -0.034843    0.017243    0.030025
P     -0.407914    2.397998    0.523926
H     -1.691321    2.824601    0.917355
H     0.416367    2.991317    1.499467
H     -0.151044    3.188835    -0.613569
P     2.386425    0.335448    -0.241637
H     2.832869    1.671197    -0.214641
H     3.255280    -0.296462    0.668531
H     2.870140    -0.116083    -1.485038
P     0.303926    -2.368515    -0.432522
H     1.613339    -2.884923    -0.385776
H     -0.402451    -3.267665    0.389782
H     -0.128587    -2.737516    -1.722018
P     -2.460445    -0.321618    0.213476
H     -2.951289    -1.625661    0.005541
H     -3.069759    0.040932    1.429601
H     -3.201335    0.422909    -0.725985
P     0.323015    -0.352298    2.403914
H     1.215913    0.552635    3.008744
H     -0.816727    -0.264791    3.225402
H     0.870546    -1.602079    2.750397
O     -0.160786    0.501298    -1.926417
H     -0.918917    0.967406    -2.332443
H     0.257141    -0.005391    -2.650787
