33

Fe     0.006228    0.002403    0.000554
C     0.337277    2.161523    -0.311410
N     0.506374    3.295854    -0.477321
C     0.715853    4.702687    -0.683911
H     1.699614    4.846419    -1.139726
H     0.668575    5.209151    0.284251
H     -0.067867    5.078774    -1.347641
C     2.157907    -0.333115    0.341517
N     3.288321    -0.512129    0.522902
C     4.690335    -0.733953    0.747718
H     5.068728    -1.398115    -0.034524
H     4.817878    -1.194473    1.731527
H     5.207047    0.229304    0.710173
C     -0.359707    -2.151130    0.300731
N     -0.553306    -3.283172    0.455913
C     -0.792472    -4.687221    0.647248
H     -1.447362    -5.042155    -0.153653
H     -1.271307    -4.830458    1.620169
H     0.166163    -5.212719    0.615026
C     -2.156825    0.286024    -0.329535
N     -3.294310    0.428735    -0.499435
C     -4.705221    0.605134    -0.708089
H     -4.963975    1.645155    -0.489793
H     -5.244387    -0.069276    -0.036748
H     -4.936832    0.367832    -1.750401
N     -0.226910    0.411306    2.154861
H     -1.129199    0.845876    2.372057
H     -0.183001    -0.449961    2.708505
H     0.495131    1.035151    2.528151
N     0.335616    -0.270362    -2.163473
H     -0.431286    0.107224    -2.728647
H     1.192726    0.182130    -2.496157
H     0.416878    -1.261598    -2.410298
