31
03/24/2023 16:57, XYZ structure generated by mol3D Class, molSimplify
Fe     -0.050919    0.050745    -0.183974
C     -0.445176    2.239857    0.342653
H     0.452926    2.866388    0.426925
N     -1.505286    2.924285    0.631946
H     -2.439480    2.515457    0.617499
H     -1.488749    3.912898    0.904817
C     2.152930    0.425306    -0.655741
H     2.453287    1.481806    -0.675406
N     3.149814    -0.334920    -0.978498
H     3.071501    -1.350921    -1.020741
H     4.082022    0.019566    -1.217963
C     0.102510    -2.215279    -0.434763
H     -0.050576    -2.579462    -1.459625
N     0.262831    -3.207773    0.380652
H     0.414770    -3.073678    1.380093
H     0.244707    -4.191620    0.091345
C     -2.245730    -0.569172    -0.051401
H     -2.574602    -0.897071    0.943766
N     -3.204845    -0.692832    -0.911666
H     -3.090803    -0.442865    -1.893617
H     -4.136912    -1.051993    -0.678821
C     0.260000    0.027630    2.076454
H     -0.654206    -0.098225    2.672195
N     1.284466    0.199040    2.848818
H     2.226879    0.336970    2.484300
H     1.229246    0.213982    3.872857
C     -0.119381    0.434451    -2.439112
H     0.127765    -0.433412    -3.065274
N     -0.317073    1.482475    -3.172732
H     -0.553642    2.390812    -2.774086
H     -0.245793    1.483629    -4.195929
