15

Fe     0.000670    0.083726    0.087713
N     -0.019111    3.192367    0.136284
C     -0.009267    2.023154    0.120453
N     3.043297    -0.055859    0.817381
C     1.929443    0.016687    0.466800
N     -0.006475    -3.086888    0.056526
C     -0.001434    -1.916992    0.059474
N     -3.028377    -0.032109    -0.693491
C     -1.925172    0.027982    -0.308727
O     -0.253906    -0.075944    2.111945
H     0.681522    -0.132720    2.388162
H     -0.609124    -0.977547    2.210632
O     0.254992    -0.004577    -1.946855
H     -0.680074    -0.064593    -2.223576
H     0.625477    -0.896548    -2.070872
