61

Fe     -0.123760    0.066940    -0.128473
C     -0.566998    3.327265    0.381512
N     0.140625    2.310260    -0.451915
H     1.143354    2.488046    -0.364595
H     -0.062580    2.510547    -1.433484
H     -0.359551    3.137869    1.437068
H     -1.642680    3.256337    0.208046
H     -0.249169    4.345175    0.138177
C     2.805262    -1.356106    -0.923051
N     2.145997    -0.063623    -0.571404
H     2.325180    0.583841    -1.341454
H     2.644898    0.333691    0.227046
H     2.265887    -1.822676    -1.750743
H     2.785163    -2.025839    -0.060377
H     3.849130    -1.218196    -1.219668
C     -1.306067    -2.776822    0.928569
N     -0.126842    -2.146401    0.266858
H     0.022125    -2.619673    -0.626610
H     0.704247    -2.370354    0.817048
H     -2.193023    -2.615966    0.311303
H     -1.457421    -2.321046    1.910178
H     -1.171694    -3.853809    1.064740
C     -3.257526    0.748269    -0.668940
N     -2.271511    0.432930    0.404049
H     -2.589096    -0.407046    0.890770
H     -2.311079    1.169066    1.110968
H     -3.257226    -0.063204    -1.398681
H     -2.964043    1.671315    -1.174355
H     -4.269627    0.871933    -0.272991
C     0.305502    0.375848    2.223751
N     0.364652    0.469377    3.385584
C     1.542283    1.078404    5.512841
C     2.704247    1.471199    4.848729
C     3.783921    1.954985    5.585147
C     3.707619    2.049628    7.000777
C     2.542392    1.655822    7.668748
C     1.467987    1.174307    6.936359
H     2.774231    1.403506    3.768122
H     4.694019    2.263477    5.080344
H     2.478689    1.726045    8.749510
H     0.559963    0.866728    7.449172
H     4.558399    2.428762    7.558541
C     0.307764    0.531952    4.822207
H     -0.567624    1.142914    5.078324
H     0.098746    -0.486204    5.176187
C     -0.500887    -0.274343    -2.411650
N     -0.597539    -0.354093    -3.571250
C     -1.603635    -1.313920    -5.656097
C     -2.449129    -2.167494    -4.947729
C     -3.311637    -3.011291    -5.645558
C     -3.333902    -3.006620    -7.065880
C     -2.486156    -2.150745    -7.778099
C     -1.627808    -1.310928    -7.084362
H     -2.442447    -2.181213    -3.862718
H     -3.974515    -3.679927    -5.105397
H     -2.498861    -2.142710    -8.862920
H     -0.966895    -0.643716    -7.632185
H     -4.012126    -3.670466    -7.593075
C     -0.624397    -0.353183    -5.009760
H     -0.846299    0.676212    -5.320674
H     0.397180    -0.573655    -5.346094
