31
03/24/2023 16:57, XYZ structure generated by mol3D Class, molSimplify
Fe     -0.021910    -0.010732    -0.036463
N     -0.331151    2.266661    -0.353123
H     -1.326273    2.488232    -0.217952
H     -0.126387    2.504159    -1.332156
S     0.652694    3.269119    0.722424
H     0.244095    4.506678    0.346599
N     2.241481    0.300526    0.288702
H     2.467912    0.160663    1.282144
H     2.479580    1.279484    0.085250
S     3.230534    -0.779125    -0.707829
H     4.471527    -0.350621    -0.368192
N     0.287442    -2.288164    0.280793
H     0.084056    -2.525018    1.260281
H     1.282494    -2.509474    0.144359
S     -0.697378    -3.291366    -0.793007
H     -0.290177    -4.528748    -0.415073
N     -2.285336    -0.324095    -0.360636
H     -2.521502    -1.303559    -0.157318
H     -2.512827    -0.184303    -1.353877
S     -3.275279    0.753618    0.636907
H     -4.515777    0.320645    0.301112
N     -0.318847    0.295922    2.221766
H     -1.300042    0.092519    2.451328
H     -0.185320    1.292359    2.439453
S     0.755470    -0.687284    3.231577
H     0.367721    -0.275890    4.464144
N     0.274098    -0.317231    -2.294700
H     0.142761    -1.314102    -2.511626
H     1.254440    -0.111448    -2.525634
S     -0.803728    0.662980    -3.303793
H     -0.417831    0.250232    -4.536487
