29

Fe     0.003350    0.004177    0.003381
C     0.000895    3.344856    0.002110
N     0.003117    2.188872    0.003396
C     -0.002534    4.800249    -0.000087
H     -0.312559    5.169424    -0.982659
H     1.002618    5.172146    0.222273
H     -0.695212    5.170310    0.762311
C     3.344062    -0.003628    0.000606
N     2.188092    0.002177    0.002448
C     4.799385    -0.012972    -0.001712
H     5.175895    1.014811    -0.002369
H     5.165457    -0.527720    -0.895600
H     5.168337    -0.527629    0.891041
C     -0.003396    -3.336899    0.001774
N     0.001788    -2.180925    0.002663
C     -0.011929    -4.792231    0.000719
H     1.016054    -5.168154    0.006846
H     -0.520969    -5.159433    -0.895967
H     -0.531939    -5.160633    0.890589
C     -3.337687    0.000777    -0.000803
N     -2.181709    0.003799    0.002640
C     -4.793073    -0.003957    -0.006416
H     -5.163878    -0.743382    0.710350
H     -5.159517    -0.253090    -1.007201
H     -5.166921    0.984829    0.277368
C     0.003409    0.002989    2.038473
N     0.003290    0.001427    3.211146
C     0.002490    0.004490    -2.031972
N     0.001109    0.004527    -3.204631
