54

Fe     -0.011973    0.028027    0.078542
C     0.022902    0.040068    -1.919929
N     0.041362    0.091538    -3.079525
C     0.059893    0.172280    -4.516053
H     -0.519510    -0.659199    -4.924502
H     1.095182    0.111639    -4.861261
H     -0.382047    1.123960    -4.821724
O     -0.000684    2.197177    -0.011343
C     -1.112959    3.036797    -0.074793
C     -0.710241    4.319827    -0.300233
C     0.712496    4.303058    -0.403044
C     1.114149    3.010938    -0.233544
H     -2.067469    2.555946    0.060615
H     -1.360340    5.180942    -0.384441
H     2.067470    2.508618    -0.235467
H     1.363952    5.148963    -0.581608
O     2.222029    0.004061    0.108696
C     3.072539    0.250864    1.192352
C     4.359706    -0.028877    0.844825
C     4.342670    -0.481679    -0.510379
C     3.046361    -0.453312    -0.926259
H     2.596113    0.600150    2.093173
H     5.227232    0.078274    1.484292
H     2.553950    -0.684931    -1.855220
H     5.192968    -0.787955    -1.106839
O     0.084850    -2.194361    0.066222
C     1.233066    -2.958199    0.278016
C     0.979575    -4.267739    -0.022406
C     -0.379264    -4.347039    -0.439785
C     -0.894116    -3.083320    -0.372174
H     2.083627    -2.434660    0.680017
H     1.685102    -5.084494    0.064899
H     -1.870685    -2.658763    -0.547150
H     -0.920674    -5.235172    -0.739379
O     -2.249381    0.013944    0.067788
C     -3.084974    -0.274793    -1.020483
C     -4.387327    -0.183272    -0.644517
C     -4.402086    0.189906    0.736577
C     -3.108684    0.299171    1.138724
H     -2.587909    -0.503660    -1.948069
H     -5.245700    -0.361134    -1.279123
H     -2.631693    0.543989    2.072047
H     -5.274089    0.354882    1.356236
C     -0.232076    0.044716    4.936221
C     0.098779    1.206801    4.235142
C     0.153108    1.170944    2.846733
N     -0.090279    0.044886    2.124017
C     -0.415503    -1.075783    2.817800
C     -0.497529    -1.113792    4.205272
H     -0.283447    0.043074    6.021102
H     0.310233    2.137297    4.752167
H     0.400179    2.068165    2.295140
H     -0.630298    -1.963665    2.240374
H     -0.768930    -2.043099    4.695895
