15

Fe     -0.203123    0.032419    -0.029179
S     0.170269    2.483340    0.402554
H     0.873276    2.439428    1.553660
H     1.242422    2.727168    -0.379753
S     2.270165    -0.321416    0.330597
H     2.305038    -1.348247    1.205136
H     2.636119    -1.055680    -0.740743
S     -0.750523    -2.387457    -0.468698
H     0.068538    -3.041181    0.381394
H     0.004922    -2.621976    -1.562398
S     -2.643221    0.428671    -0.395906
H     -2.957354    0.983777    0.794227
H     -2.606348    1.603983    -1.059205
F     -0.463616    -0.238938    1.656640
F     0.073905    0.301154    -1.712686
