27

Fe     0.004891    0.002089    0.004595
C     0.538926    3.253898    0.484398
N     0.357303    2.125110    0.316634
C     0.767038    4.676486    0.694736
H     0.351453    5.247707    -0.141118
H     1.841702    4.872540    0.762440
H     0.288536    4.996125    1.625658
C     3.256902    -0.490132    -0.516545
N     2.127599    -0.315984    -0.344369
C     4.680248    -0.709428    -0.731463
H     5.209261    0.248367    -0.706261
H     4.841380    -1.179550    -1.706473
H     5.079318    -1.358153    0.054402
C     -0.539470    -3.246834    -0.484084
N     -0.347282    -2.120768    -0.309871
C     -0.782722    -4.665439    -0.704227
H     0.135645    -5.148488    -1.052286
H     -1.561810    -4.795387    -1.461760
H     -1.103058    -5.137686    0.229598
C     -3.249142    0.486366    0.523133
N     -2.118067    0.321083    0.353868
C     -4.674994    0.693242    0.733769
H     -5.071207    -0.090354    1.387008
H     -5.200582    0.664781    -0.225684
H     -4.842120    1.666584    1.205476
Cl     0.337973    -0.367723    2.235580
Cl     -0.329608    0.370822    -2.226697
