53

Fe     -0.014946    -0.124182    -0.027204
C     -0.007813    4.890199    0.120320
C     0.922221    4.193640    -0.656846
C     0.896085    2.804965    -0.653022
N     -0.006290    2.089406    0.064746
C     -0.906931    2.773528    0.812201
C     -0.934081    4.161660    0.871757
H     -0.011981    5.976123    0.137708
H     1.662022    4.715953    -1.255044
H     1.624588    2.238493    -1.223411
H     -1.641112    2.186198    1.353860
H     -1.674427    4.659300    1.489801
C     4.978792    -0.156505    0.085533
C     4.254327    0.714731    0.904533
C     2.866718    0.702009    0.840195
N     2.179441    -0.134711    0.022746
C     2.889593    -0.984326    -0.760403
C     4.278118    -1.018096    -0.763524
H     6.064729    -0.164684    0.110225
H     4.755183    1.400429    1.580559
H     2.280697    1.390751    1.439109
H     2.320657    -1.669526    -1.379999
H     4.797420    -1.712959    -1.415371
C     -0.007488    -5.084838    -0.108253
C     0.799241    -4.382340    0.792547
C     0.775364    -2.994692    0.774094
N     -0.010868    -2.288240    -0.077185
C     -0.794561    -2.976434    -0.944545
C     -0.814858    -4.364046    -0.993566
H     -0.007355    -6.171007    -0.119107
H     1.441336    -4.900435    1.497638
H     1.407535    -2.421408    1.442802
H     -1.430749    -2.391678    -1.599566
H     -1.456282    -4.868296    -1.709114
C     -4.990169    -0.117668    -0.159731
C     -4.302070    -1.012818    0.664833
C     -2.913683    -0.994506    0.666155
N     -2.191619    -0.128689    -0.089154
C     -2.867595    0.739272    -0.883771
C     -4.254151    0.769168    -0.951453
H     -6.075952    -0.112325    -0.186566
H     -4.831099    -1.721260    1.294315
H     -2.355739    -1.703966    1.267561
H     -2.272500    1.436447    -1.462960
H     -4.745378    1.479247    -1.608906
N     -0.020955    -0.137022    2.202317
H     -0.628797    -0.864015    2.588790
H     -0.358271    0.742847    2.601223
H     0.899076    -0.294662    2.623093
N     0.054365    0.070103    -2.245432
H     0.909664    -0.310721    -2.658904
H     0.021993    1.051661    -2.534657
H     -0.721015    -0.389596    -2.729891
