25

Fe     -0.012755    0.016546    0.102005
O     0.314391    2.099737    0.318516
H     1.208426    2.473179    0.442073
S     -0.862776    3.238389    0.931673
H     -0.944256    3.984040    -0.197087
O     2.154605    -0.315006    0.353819
H     2.637067    -0.300102    -0.500256
S     3.260983    -0.153811    1.658263
H     3.692054    -1.442906    1.683246
O     -0.481997    -2.051632    -0.252462
H     -0.583258    -2.690738    0.480509
S     -0.086235    -2.936292    -1.703734
H     -1.362327    -3.078372    -2.139229
O     -2.067328    0.589385    -0.371343
H     -2.456300    1.336406    0.135663
S     -3.314444    -0.315946    -1.167511
H     -3.578225    0.595199    -2.136980
O     -0.429337    -0.336707    2.248436
H     -1.368285    -0.378360    2.526050
S     0.559150    -0.808455    3.579010
H     0.621037    0.407281    4.182842
O     0.564872    0.133181    -2.037138
H     0.449713    -0.776704    -2.420256
S     -0.056131    1.304536    -3.136478
H     1.021714    1.338516    -3.959860
