23

Fe     -0.041867    -0.226728    -0.020051
P     0.391389    2.217710    -0.251720
H     -0.305920    3.003841    0.686075
H     -0.031677    2.740524    -1.489337
H     1.711064    2.698055    -0.138120
P     2.409303    -0.631597    0.114694
H     2.996852    -0.320382    1.355769
H     3.204174    0.081860    -0.803210
H     2.815012    -1.962939    -0.102279
P     -0.484803    -2.667039    0.255162
H     0.310112    -3.262229    1.253542
H     -0.212420    -3.449757    -0.883942
H     -1.786622    -3.071337    0.610988
P     -2.489699    0.157948    -0.226008
H     -3.259978    -0.171890    0.905661
H     -3.110486    -0.570672    -1.258336
H     -2.881519    1.482506    -0.499184
O     -0.114507    -0.096147    1.965917
H     -0.860826    -0.390436    2.526251
H     0.411378    0.525924    2.507996
O     0.013302    -0.363419    -2.011198
H     -0.463849    -1.036968    -2.536425
H     0.723871    -0.015550    -2.587206
