17

Fe     -0.004303    0.004884    0.089507
C     0.319140    1.898662    0.419982
N     0.513365    3.032572    0.632298
C     1.905324    -0.286813    -0.173297
N     3.052972    -0.464148    -0.314879
C     -0.328094    -1.888820    -0.240143
N     -0.522720    -3.022721    -0.452164
C     -1.913925    0.296349    0.352319
N     -3.061647    0.473815    0.493101
P     0.355477    -0.336667    2.299357
H     1.456762    0.321973    2.882669
H     -0.646500    0.036596    3.222206
H     0.606697    -1.648538    2.758392
P     -0.363146    0.346424    -2.120293
H     0.636980    -0.033151    -3.042545
H     -1.467892    -0.306670    -2.703307
H     -0.606955    1.659296    -2.580483
