32

Fe     0.076951    0.082359    0.198467
C     -0.195276    2.008704    0.450040
N     -0.344601    3.154910    0.506213
C     -0.521196    4.576202    0.526919
H     0.400477    5.050431    0.181514
H     -0.747198    4.892954    1.547735
H     -1.347094    4.837718    -0.138844
C     1.985518    0.398789    0.520781
N     3.122460    0.591867    0.616895
C     4.532143    0.836251    0.685673
H     4.891704    1.083757    -0.316193
H     5.031728    -0.063810    1.051361
H     4.716539    1.669881    1.367228
C     0.357657    -1.835902    -0.100779
N     0.542035    -2.946069    -0.370409
C     0.777777    -4.305777    -0.754100
H     0.803421    -4.359711    -1.845293
H     -0.029734    -4.930806    -0.365890
H     1.735153    -4.631544    -0.340843
C     -1.825259    -0.225807    -0.169064
N     -2.929917    -0.384188    -0.475532
C     -4.284308    -0.570809    -0.902748
H     -4.906245    0.214327    -0.466668
H     -4.630992    -1.551713    -0.569491
H     -4.315977    -0.512141    -1.993523
C     -0.224348    -0.237800    2.144039
N     -0.398429    -0.422922    3.274364
C     -0.613100    -0.651146    4.672297
H     0.170937    -1.314834    5.045279
H     -1.592434    -1.115573    4.809901
H     -0.573443    0.305870    5.197918
F     0.349574    0.356117    -1.504066
