31

Fe     -0.159444    0.009300    0.021587
N     0.690381    1.716696    -0.329373
C     1.121334    2.773457    -0.535506
C     1.661988    4.095013    -0.793552
H     0.841879    4.806015    -0.951912
H     2.262690    4.424916    0.063581
H     2.295971    4.069969    -1.688477
N     1.589931    -0.839695    -0.161024
C     2.626142    -1.353413    -0.260852
C     3.922120    -1.993734    -0.389909
H     4.240332    -1.976074    -1.440298
H     4.664097    -1.458733    0.216307
H     3.860531    -3.034847    -0.049859
N     -1.022536    -1.706867    0.382328
C     -1.510155    -2.734238    0.615076
C     -2.121376    -4.018001    0.906435
H     -2.982048    -4.179142    0.244832
H     -1.391758    -4.822816    0.753350
H     -2.464519    -4.037540    1.948837
N     -1.896068    0.861998    0.194009
C     -2.903969    1.431132    0.266246
C     -4.167037    2.139790    0.359069
H     -4.394598    2.354734    1.410812
H     -4.103491    3.084686    -0.194529
H     -4.971656    1.526461    -0.064836
O     0.109466    0.325925    1.910293
H     -0.472188    -0.075946    2.585883
H     1.016755    0.396450    2.266919
O     -0.496687    -0.205399    -1.875156
H     -1.232804    -0.774800    -2.176008
H     0.262005    -0.326275    -2.479786
