15

Fe     -0.192374    -0.029878    -0.030868
S     -0.584807    2.324671    0.318840
H     0.099419    2.559983    1.458567
H     0.327870    2.893269    -0.498149
S     2.153054    0.383955    0.376080
H     2.482360    -0.542411    1.301447
H     2.766838    -0.232564    -0.656113
S     0.022208    -2.405917    -0.412487
H     0.690473    -2.821318    0.684882
H     1.084581    -2.478852    -1.242031
S     -2.543618    -0.413935    -0.424116
H     -3.095521    0.295422    0.583762
H     -2.804197    0.509336    -1.375056
Cl     -0.529209    -0.387590    2.162246
Cl     0.139552    0.331106    -2.223921
