31
03/24/2023 16:57, XYZ structure generated by mol3D Class, molSimplify
Fe     0.007054    -0.022366    -0.023354
C     0.247792    1.926108    0.380660
H     -0.218136    2.299981    1.297480
N     0.858714    2.892018    -0.238505
H     1.363116    2.773296    -1.116461
H     0.878830    3.851814    0.118786
C     1.955517    -0.276753    -0.409098
H     2.427658    0.422373    -1.110820
N     2.827044    -1.145005    0.004367
H     2.596165    -1.891497    0.659077
H     3.801270    -1.148659    -0.311602
C     -0.233365    -1.970765    -0.427375
H     0.233167    -2.344739    -1.343846
N     -0.844617    -2.936641    0.191530
H     -1.349545    -2.817565    1.069135
H     -0.864520    -3.896523    -0.165544
C     -1.941264    0.232602    0.362465
H     -2.413467    -0.466260    1.064416
N     -2.812558    1.101167    -0.050828
H     -2.581715    1.847470    -0.705760
H     -3.786694    1.105145    0.265406
C     0.274759    -0.369744    1.931746
H     -0.468003    -0.994679    2.444199
N     1.173781    0.029646    2.778213
H     1.954926    0.628769    2.513070
H     1.153228    -0.219303    3.771513
C     -0.260443    0.324923    -1.978457
H     0.482140    0.950067    -2.490909
N     -1.159206    -0.074924    -2.824986
H     -1.940149    -0.674279    -2.559771
H     -1.138691    0.173922    -3.818314
