17

Fe     0.015780    0.020271    0.100689
S     0.386894    2.364047    0.466269
H     -0.119938    2.447258    1.714996
H     -0.653865    2.973015    -0.139896
S     2.363149    -0.305643    -0.387252
H     2.925792    0.435634    0.591266
H     2.587426    0.599121    -1.363540
S     -0.379112    -2.342974    -0.320954
H     0.657474    -2.997034    0.249223
H     0.101247    -2.461267    -1.576431
S     -2.353782    0.381675    0.425341
H     -2.933632    -0.310096    -0.578568
H     -2.617880    -0.540216    1.375648
O     0.271495    -0.143145    1.875449
H     0.469449    -1.032063    2.215543
N     -0.446330    0.549072    -2.930892
C     -0.274141    0.362375    -1.790398
