25

Fe     0.000205    -0.001112    -0.000267
O     -0.000102    1.930204    0.000034
H     0.582942    2.496531    -0.544908
H     -0.583102    2.496542    0.545088
O     1.959774    -0.041721    -0.001593
H     2.550152    0.022456    -0.779110
H     2.507523    0.038144    0.806073
O     0.000074    -1.930859    -0.000000
H     0.622486    -2.494905    -0.501968
H     -0.622379    -2.495061    0.501823
O     -1.959814    -0.042133    0.001615
H     -2.550224    0.022206    0.779174
H     -2.507486    0.037881    -0.806087
C     -0.048377    0.000964    2.015731
N     -0.037172    -0.000535    3.171916
C     -0.010523    -0.004046    4.615176
H     0.606789    -0.845163    4.945737
H     -1.036278    -0.114666    4.979515
H     0.417608    0.944305    4.954255
C     0.048391    0.000950    -2.015775
N     0.037049    -0.000461    -3.171905
C     0.010557    -0.004035    -4.615004
H     -0.606740    -0.845038    -4.945709
H     1.036214    -0.114641    -4.979572
H     -0.417568    0.944191    -4.954240
