62

Fe     0.007080    0.024886    0.108210
C     0.090374    -0.065233    -1.880678
N     0.150322    -0.192656    -3.031874
C     0.196053    -0.369002    -4.457788
H     -0.442473    -1.214292    -4.727987
H     1.227213    -0.569101    -4.759566
H     -0.165323    0.543706    -4.937980
C     -0.605020    4.877080    -0.112320
C     -1.185536    4.114862    0.903065
C     -0.969135    2.744110    0.932138
N     -0.209143    2.094246    0.014191
C     0.336676    2.843162    -0.974257
C     0.171343    4.219379    -1.066815
H     -0.758045    5.951449    -0.160463
H     -1.802698    4.571752    1.670017
H     -1.409198    2.143244    1.713475
H     0.917058    2.327673    -1.723555
H     0.644675    4.758732    -1.880982
C     4.927146    -0.056789    0.143563
C     4.172892    -0.684312    1.135544
C     2.786112    -0.622341    1.080941
N     2.111240    0.026566    0.096192
C     2.856187    0.608634    -0.874827
C     4.245222    0.596746    -0.883527
H     6.012636    -0.084464    0.163382
H     4.645749    -1.222432    1.950668
H     2.195985    -1.120484    1.835517
H     2.327928    1.090682    -1.682858
H     4.774387    1.091025    -1.691927
C     -0.165102    -4.834013    -0.507309
C     -1.258943    -4.143927    0.016476
C     -1.174095    -2.768904    0.193791
N     -0.059887    -2.055356    -0.103853
C     0.993418    -2.731063    -0.628664
C     0.978592    -4.104627    -0.835896
H     -0.204917    -5.908224    -0.662614
H     -2.176996    -4.656577    0.283239
H     -2.016525    -2.215832    0.581149
H     1.863501    -2.147125    -0.889995
H     1.855916    -4.588199    -1.253195
C     -4.899678    0.269866    0.099752
C     -4.202400    0.151028    1.303318
C     -2.815552    0.066252    1.281577
N     -2.090635    0.087688    0.134296
C     -2.778260    0.207690    -1.026700
C     -4.163828    0.299005    -1.084221
H     -5.983329    0.337563    0.086021
H     -4.719123    0.123626    2.257161
H     -2.264046    -0.028043    2.205420
H     -2.203921    0.230598    -1.940133
H     -4.647551    0.391992    -2.050963
C     0.633758    -0.057145    4.941757
C     1.023265    1.039968    4.172058
C     0.777774    1.031781    2.804046
N     0.151662    0.006718    2.174433
C     -0.201727    -1.065031    2.926494
C     0.017938    -1.132076    4.297464
H     0.813934    -0.077334    6.012601
H     1.520632    1.895712    4.617052
H     1.104990    1.856033    2.184952
H     -0.669336    -1.891360    2.409600
H     -0.291777    -2.016174    4.844834
