31

Fe     -0.173242    0.050935    -0.013857
N     0.778653    1.892221    -0.042685
C     1.292264    2.936421    -0.032355
C     1.929754    4.237980    -0.019701
H     2.917660    4.175778    -0.493268
H     1.312240    4.960901    -0.567653
H     2.049859    4.583099    1.015357
N     1.658589    -0.905449    0.088699
C     2.678013    -1.464131    0.138336
C     3.948012    -2.159219    0.199027
H     3.781434    -3.243752    0.190415
H     4.565283    -1.882488    -0.665110
H     4.479231    -1.884778    1.119270
N     -1.133374    -1.781873    0.109343
C     -1.709215    -2.792672    0.087900
C     -2.429530    -4.049656    0.062432
H     -3.152162    -4.081125    0.887720
H     -2.967640    -4.148793    -0.888973
H     -1.727392    -4.886123    0.167060
N     -2.006729    0.993848    -0.222397
C     -3.037141    1.531783    -0.276111
C     -4.319665    2.203126    -0.340485
H     -5.128476    1.476747    -0.191539
H     -4.376755    2.970001    0.442533
H     -4.443060    2.679889    -1.321214
S     -0.472131    0.361840    2.699381
H     -0.599986    -0.917579    3.119378
H     0.805410    0.475690    3.130578
S     -0.276135    -0.243089    -2.752111
H     1.002115    -0.529453    -3.090583
H     -0.199227    1.041932    -3.168064
