32

Fe     -0.084373    0.075470    0.236124
C     -0.326671    1.987244    0.533070
N     -0.486186    3.128767    0.643223
C     -0.692966    4.543959    0.719351
H     -0.940810    4.914549    -0.278494
H     0.223002    5.018852    1.078457
H     -1.514926    4.747405    1.409618
C     1.809212    0.436721    -0.056207
N     2.921242    0.653903    -0.294616
C     4.282061    0.930384    -0.645490
H     4.318316    1.228449    -1.696362
H     4.879128    0.028565    -0.491542
H     4.656058    1.738782    -0.012982
C     0.148243    -1.828324    -0.118172
N     0.280592    -2.944575    -0.395963
C     0.434750    -4.310718    -0.797549
H     -0.364608    -4.905821    -0.349953
H     1.406976    -4.674524    -0.457155
H     0.375490    -4.362542    -1.887594
C     -1.987713    -0.276790    0.475957
N     -3.127234    -0.466850    0.553623
C     -4.541711    -0.688785    0.590373
H     -4.976686    -0.084658    1.389944
H     -4.731439    -1.748367    0.776828
H     -4.965613    -0.396620    -0.373668
C     0.233713    -0.213883    2.140137
N     0.422461    -0.385780    3.270160
C     0.656717    -0.599167    4.667211
H     1.431648    -1.361250    4.781685
H     -0.271180    -0.937766    5.134386
H     0.985417    0.339409    5.119635
Cl     -0.441112    0.408276    -1.929637
