21

Fe     -0.032422    -0.021032    0.189218
N     -0.442052    2.148717    0.222867
H     -0.989213    2.364056    1.063972
H     -0.948850    2.560104    -0.567113
H     0.417125    2.699194    0.312531
N     2.130766    0.389376    0.433906
H     2.599896    1.022860    -0.220704
H     2.676783    -0.477311    0.421620
H     2.275031    0.775322    1.373538
N     0.425883    -2.143536    -0.242774
H     -0.402730    -2.668347    -0.538027
H     0.718125    -2.583228    0.637066
H     1.151135    -2.358582    -0.933786
N     -2.137507    -0.391851    -0.388738
H     -2.329659    -0.832175    -1.293938
H     -2.696272    0.466516    -0.375261
H     -2.561730    -0.995285    0.324497
N     -0.518149    -0.480848    3.258411
C     -0.335966    -0.308277    2.109325
C     0.399911    0.338989    -2.315966
O     0.599877    0.495348    -3.414246
