31

Fe     0.009073    -0.000443    -0.000409
P     -0.309199    2.362582    -0.374452
H     -1.489229    2.732809    -1.059083
H     -0.532880    3.063603    0.830016
P     1.285607    3.640789    -1.344834
H     1.188266    2.976037    -2.598335
P     3.150046    2.548234    -0.686352
H     3.013361    2.875171    0.691021
P     2.345416    0.448434    -0.422138
H     2.777081    -0.174196    -1.613132
H     3.266996    -0.149048    0.468080
P     0.412950    -2.344145    0.418188
H     1.629238    -2.769091    -0.159047
H     -0.456191    -3.251641    -0.228929
P     0.594866    -3.183447    2.513056
H     -0.782324    -2.995754    2.814557
P     1.308352    -1.356737    3.634297
H     2.573583    -1.305035    2.987027
P     0.432008    0.293595    2.358205
H     1.199880    1.425231    2.716528
H     -0.746850    0.607691    3.068065
P     -2.355499    -0.344455    0.341029
H     -2.636193    -1.511639    1.083896
H     -2.977920    0.598316    1.190959
P     -3.803713    -0.537618    -1.388544
H     -3.703485    0.834830    -1.746164
P     -2.433142    -1.281104    -3.023235
H     -2.203429    -2.552268    -2.429761
P     -0.451167    -0.435671    -2.331811
H     0.505326    -1.244975    -2.986781
H     -0.339796    0.716181    -3.140723
