57

Fe     -0.033681    0.182345    -0.007989
C     0.004758    5.013810    -0.017043
C     0.760396    4.293020    -0.944052
C     0.722230    2.904907    -0.916713
N     -0.021300    2.218687    -0.016064
C     -0.752159    2.919219    0.883917
C     -0.764336    4.308029    0.910443
H     0.014924    6.099670    -0.017798
H     1.377089    4.794772    -1.682490
H     1.303567    2.319630    -1.616630
H     -1.344871    2.345139    1.583802
H     -1.371349    4.821658    1.648803
C     4.795339    0.207096    -0.107191
C     4.097950    0.990662    0.814692
C     2.709618    0.958824    0.817212
N     2.000846    0.194894    -0.048675
C     2.678925    -0.561200    -0.945057
C     4.066824    -0.581466    -1.000157
H     5.880994    0.210972    -0.129465
H     4.618497    1.623341    1.526274
H     2.141399    1.562013    1.512469
H     2.087110    -1.167216    -1.618069
H     4.562823    -1.209688    -1.732842
C     -0.031257    -4.641078    0.005130
C     0.774068    -3.925483    0.893958
C     0.749342    -2.537554    0.863040
N     -0.028375    -1.845452    -0.004708
C     -0.805680    -2.542138    -0.869285
C     -0.833685    -3.930276    -0.890089
H     -0.033292    -5.727039    0.009571
H     1.417512    -4.432060    1.605781
H     1.368140    -1.955791    1.532613
H     -1.421601    -1.964054    -1.544773
H     -1.478049    -4.440749    -1.598394
C     -4.859860    0.207354    0.101644
C     -4.129414    -0.590950    0.984520
C     -2.741820    -0.569669    0.927722
N     -2.064626    0.196179    0.038165
C     -2.775664    0.970023    -0.817546
C     -4.163888    1.001785    -0.812041
H     -5.945619    0.211317    0.126061
H     -4.624596    -1.226019    1.711655
H     -2.149460    -1.181522    1.594715
H     -2.208905    1.581771    -1.506321
H     -4.685487    1.643662    -1.514411
N     0.025736    0.180215    1.974517
C     0.052662    0.180580    3.132587
C     0.088087    0.176913    4.588215
H     -0.730260    0.788383    4.984897
H     -0.020011    -0.847646    4.962009
H     1.041703    0.585809    4.941037
N     -0.097095    0.184026    -1.989796
C     -0.131872    0.182560    -3.147702
C     -0.177550    0.180603    -4.603092
H     -0.074442    1.203885    -4.982041
H     0.639046    -0.431353    -5.002744
H     -1.132907    -0.231774    -4.947248
