33

Fe     -0.293332    0.040740    -0.040976
N     0.571636    1.764427    0.233132
C     1.080256    2.791402    0.416018
C     1.716359    4.076939    0.645072
H     2.313511    4.359013    -0.231032
H     0.951689    4.844298    0.817516
H     2.371813    4.019702    1.522306
N     1.429012    -0.828794    0.213200
C     2.455096    -1.355977    0.340214
C     3.740182    -2.014079    0.496771
H     3.983576    -2.573682    -0.415114
H     4.522242    -1.266152    0.675818
H     3.705072    -2.709969    1.343617
N     -1.157392    -1.682834    -0.317868
C     -1.662462    -2.709949    -0.509492
C     -2.294770    -3.994601    -0.753381
H     -3.285266    -3.843987    -1.199280
H     -1.679089    -4.585392    -1.443090
H     -2.403121    -4.544760    0.189279
N     -2.015927    0.909928    -0.297517
C     -3.040944    1.436691    -0.434496
C     -4.323900    2.094609    -0.608571
H     -4.850701    2.146109    0.352307
H     -4.174800    3.111000    -0.992344
H     -4.937210    1.528603    -1.320779
P     -0.695912    -0.283793    2.346005
H     -0.349227    -1.566600    2.803544
H     -2.033928    -0.140021    2.753668
H     0.008618    0.575470    3.208017
P     0.111812    0.369387    -2.426088
H     -0.278099    1.637676    -2.889576
H     -0.554612    -0.518100    -3.290031
H     1.457487    0.273032    -2.823027
