33

Fe     0.000795    0.001711    0.000192
C     0.424556    3.053814    -0.452602
N     0.262293    1.916134    -0.289360
C     0.627194    4.476810    -0.657899
H     0.445992    4.729406    -1.710208
H     1.658497    4.746709    -0.398307
H     -0.064208    5.047967    -0.026409
C     3.035632    -0.511225    -0.473151
N     1.902882    -0.324321    -0.301943
C     4.451950    -0.745653    -0.689740
H     4.937682    0.180610    -1.020351
H     4.586215    -1.515390    -1.460339
H     4.920857    -1.086472    0.241617
C     -0.425701    -3.049451    0.456429
N     -0.261596    -1.912470    0.290155
C     -0.630415    -4.471740    0.664428
H     0.327366    -5.001095    0.588850
H     -1.316576    -4.863091    -0.097368
H     -1.061864    -4.645424    1.657883
C     -3.035054    0.510495    0.471503
N     -1.901540    0.326846    0.301812
C     -4.452774    0.739201    0.685300
H     -4.693663    0.614311    1.748300
H     -5.037159    0.018429    0.099409
H     -4.719019    1.756057    0.371969
N     0.296353    0.193144    1.987580
H     -0.460731    -0.239707    2.523223
H     1.170484    -0.247099    2.288528
H     0.339176    1.178163    2.264209
N     -0.292457    -0.188968    -1.987425
H     -1.170881    0.243488    -2.287247
H     0.460427    0.252725    -2.521873
H     -0.325606    -1.173653    -2.266486
