37

Fe     -0.053186    0.084655    -0.068918
P     0.180084    2.436279    0.348709
H     -0.578342    2.813387    1.468870
H     -0.400083    3.267232    -0.639375
N     1.718849    2.972871    0.784461
H     1.757493    3.779411    1.409111
H     2.413802    3.079702    0.049382
P     2.279635    -0.244155    0.317668
H     2.785194    0.402013    1.466287
H     3.060135    0.319480    -0.704287
N     2.752190    -1.864229    0.255280
H     2.683805    -2.370807    1.136043
H     3.648394    -2.053090    -0.194136
P     -0.340681    -2.261844    -0.460988
H     0.306256    -3.118283    0.457929
H     0.289523    -2.660244    -1.650984
N     -1.935690    -2.754435    -0.728806
H     -2.531056    -2.882007    0.086849
H     -2.068027    -3.536021    -1.372089
P     -2.416130    0.385628    -0.437776
H     -3.186651    -0.258002    0.545756
H     -2.941852    -0.203088    -1.611111
N     -2.936343    1.989567    -0.260768
H     -3.848031    2.111232    0.182291
H     -2.890064    2.585449    -1.085927
P     -0.243681    -0.279487    2.292772
H     -1.559322    -0.284823    2.823347
H     0.307885    0.791220    3.019374
N     0.676341    -1.569575    2.902277
H     0.303894    -2.505360    2.752492
H     0.936559    -1.478234    3.886806
P     0.194070    0.469629    -2.423152
H     -0.740501    1.421546    -2.909639
H     -0.192272    -0.646839    -3.185338
N     1.735541    0.751721    -3.036974
H     2.172878    1.649903    -2.845984
H     1.883386    0.496801    -4.014482
