33

Fe     0.001264    -0.009744    0.000309
C     0.445701    3.177033    0.513016
N     0.294275    2.038096    0.328473
C     0.634694    4.596043    0.741884
H     0.618302    5.132950    -0.215068
H     1.599748    4.769563    1.234426
H     -0.169147    4.980400    1.382434
C     3.172511    -0.547662    0.482819
N     2.037661    -0.350824    0.315866
C     4.586093    -0.791597    0.690363
H     5.130673    0.160958    0.705494
H     4.979160    -1.416616    -0.121564
H     4.738878    -1.307905    1.646662
C     -0.474384    -3.181740    -0.513748
N     -0.300143    -2.045836    -0.327914
C     -0.690134    -4.595978    -0.744306
H     0.269492    -5.127873    -0.724449
H     -1.164255    -4.745694    -1.722765
H     -1.343689    -5.005120    0.036819
C     -3.175190    0.492630    -0.492064
N     -2.037366    0.319557    -0.317954
C     -4.591666    0.709380    -0.709429
H     -5.174316    0.072435    -0.031712
H     -4.851465    0.460909    -1.746383
H     -4.841818    1.760641    -0.518661
N     -0.349656    -0.242653    2.142542
H     -1.201102    0.234666    2.452563
H     -0.451777    -1.227871    2.402930
H     0.421580    0.132899    2.701586
N     0.419474    0.344986    -2.118393
H     -0.420382    0.645207    -2.621344
H     1.128748    1.068709    -2.264385
H     0.756249    -0.500597    -2.587327
