19

Fe     0.000040    0.000038    0.000404
C     0.000004    2.218652    0.000381
N     -0.000049    3.372451    0.000354
H     -0.000109    4.390210    0.000323
C     2.218655    -0.000028    0.000347
N     3.372454    0.000015    0.000527
H     4.390213    0.000005    0.000577
C     0.000032    -2.218578    0.000295
N     0.000127    -3.372377    0.000435
H     0.000180    -4.390136    0.000437
C     -2.218576    0.000053    0.000236
N     -3.372375    0.000055    0.000318
H     -4.390135    0.000058    0.000260
C     0.000083    0.000038    2.219004
N     0.000121    0.000051    3.372803
H     0.000171    0.000070    4.390563
C     0.000020    0.000046    -2.218227
N     -0.000001    0.000030    -3.372026
H     -0.000036    0.000010    -4.389785
