62

Fe     0.013067    0.002091    0.137426
C     0.087940    -0.067811    -2.156022
N     0.085030    -0.194313    -3.310299
C     0.064716    -0.344343    -4.738873
H     -0.569203    -1.196388    -4.997070
H     1.083725    -0.519120    -5.092985
H     -0.335067    0.570093    -5.184083
C     -0.506192    4.988881    -0.124264
C     -1.176255    4.232888    0.840965
C     -1.012512    2.853935    0.851131
N     -0.222408    2.200851    -0.035911
C     0.410033    2.940385    -0.976264
C     0.298477    4.323360    -1.050783
H     -0.612937    6.069312    -0.156547
H     -1.818911    4.701506    1.579717
H     -1.521994    2.246783    1.588297
H     1.017234    2.406884    -1.695170
H     0.836797    4.864060    -1.822366
C     5.076514    -0.091924    0.139699
C     4.333779    -0.666745    1.173029
C     2.947441    -0.599789    1.128643
N     2.270967    0.000354    0.116713
C     3.000775    0.536611    -0.889831
C     4.390215    0.516492    -0.912812
H     6.161979    -0.124833    0.151350
H     4.817965    -1.164758    2.006510
H     2.353276    -1.049226    1.913688
H     2.452819    0.981251    -1.710173
H     4.920985    0.966507    -1.745086
C     -0.124215    -4.963149    -0.483445
C     -1.266317    -4.265706    -0.083106
C     -1.196530    -2.887597    0.075401
N     -0.054356    -2.184805    -0.128432
C     1.046480    -2.866790    -0.530851
C     1.050558    -4.243448    -0.713136
H     -0.152018    -6.040217    -0.620065
H     -2.204204    -4.778337    0.102903
H     -2.065168    -2.315615    0.372106
H     1.936972    -2.280254    -0.709745
H     1.963617    -4.737700    -1.028401
C     -5.031767    0.229025    0.172673
C     -4.327659    0.093925    1.371340
C     -2.941131    0.014905    1.333575
N     -2.233384    0.061955    0.177785
C     -2.923670    0.203843    -0.977528
C     -4.310447    0.285945    -1.021162
H     -6.116084    0.290032    0.170220
H     -4.841824    0.050353    2.325821
H     -2.368285    -0.090909    2.245936
H     -2.339156    0.249137    -1.886958
H     -4.812005    0.393472    -1.977078
C     0.529602    0.060369    5.051317
C     0.947855    1.140031    4.268416
C     0.774545    1.084330    2.891590
N     0.203132    0.020561    2.274472
C     -0.175585    -1.037601    3.035680
C     -0.034630    -1.050479    4.417020
H     0.649408    0.080029    6.130713
H     1.408714    2.015946    4.713231
H     1.112908    1.892041    2.253729
H     -0.596330    -1.886533    2.510155
H     -0.359824    -1.918415    4.980632
