29

Fe     -0.006304    -0.005811    0.211162
N     -0.002786    2.084112    -0.061445
C     0.001858    3.243311    -0.032333
C     0.008657    4.694725    0.006322
H     0.800014    5.040966    0.680688
H     0.188567    5.093604    -0.998190
H     -0.957640    5.059187    0.372347
N     2.083815    -0.002499    -0.058991
C     3.242868    0.001992    -0.024328
C     4.693942    0.008537    0.024541
H     5.084559    0.806652    -0.616419
H     5.024264    0.178863    1.055683
H     5.082131    -0.955059    -0.323417
N     -0.002937    -2.094011    -0.056074
C     0.001294    -3.253053    -0.019503
C     0.007549    -4.703977    0.031828
H     0.806150    -5.095811    -0.607801
H     0.176990    -5.032525    1.063696
H     -0.955839    -5.092557    -0.316300
N     -2.094224    -0.003052    -0.058264
C     -3.253350    0.000863    -0.024376
C     -4.704380    0.006688    0.023536
H     -5.092795    0.846244    -0.563579
H     -5.094052    -0.930951    -0.387999
H     -5.035473    0.109199    1.063385
N     0.000546    0.002778    3.344188
C     -0.001961    0.000020    2.167293
C     -0.001973    -0.004551    -2.355138
O     0.000509    -0.003880    -3.484210
