23

Fe     -0.030830    -0.035028    0.067190
P     -0.459483    2.585735    -0.429260
H     -0.373989    3.609688    0.537181
H     0.380195    3.090909    -1.441009
H     -1.725968    2.841633    -0.989620
P     2.616031    0.308728    -0.376423
H     3.105938    1.627919    -0.463163
H     3.577591    -0.268483    0.478809
H     3.007205    -0.208317    -1.626400
P     0.424691    -2.683920    0.333761
H     1.457785    -3.148986    -0.503592
H     0.753430    -3.314775    1.551469
H     -0.646980    -3.482876    -0.110168
P     -2.676715    -0.458509    0.423450
H     -3.118920    -1.645030    -0.192695
H     -3.310206    -0.545358    1.680643
H     -3.488911    0.491509    -0.226081
P     0.292794    0.438104    2.692388
H     1.484425    1.065435    3.110821
H     -0.654826    1.270679    3.322502
H     0.273557    -0.664594    3.570878
C     -0.349180    -0.340008    -1.860651
N     -0.549088    -0.521159    -3.003505
