37

Fe     0.004858    -0.002411    0.051564
C     1.402997    2.864451    -0.571070
N     0.902920    1.839282    -0.350116
C     2.027136    4.144601    -0.845417
H     1.849210    4.428962    -1.889634
H     3.107753    4.077337    -0.671082
H     1.604417    4.913501    -0.187473
C     2.889226    -1.460687    -0.262720
N     1.855861    -0.939945    -0.157417
C     4.179681    -2.109658    -0.392742
H     4.956420    -1.358580    -0.580804
H     4.157335    -2.819763    -1.228256
H     4.419227    -2.649983    0.531122
C     -1.408219    -2.874488    0.591187
N     -0.900971    -1.848273    0.391776
C     -2.043012    -4.154006    0.842202
H     -1.288241    -4.949548    0.851529
H     -2.777907    -4.365501    0.055921
H     -2.553271    -4.131440    1.812820
C     -2.888691    1.457414    0.272770
N     -1.854026    0.934423    0.195582
C     -4.180280    2.109897    0.370348
H     -4.730641    1.719225    1.234838
H     -4.761801    1.920935    -0.540155
H     -4.043263    3.191314    0.490654
C     0.512724    0.442261    3.240372
N     0.331095    0.282747    2.104037
C     0.740120    0.641182    4.659141
H     -0.183519    0.985193    5.139910
H     1.524207    1.393154    4.808691
H     1.055316    -0.302065    5.121380
C     -0.331284    -0.286568    -2.087642
N     -0.507838    -0.438578    -3.221984
C     -0.727021    -0.628035    -4.627362
H     -1.716862    -1.068834    -4.772267
H     0.044600    -1.297614    -5.016320
H     -0.670189    0.343027    -5.126241
