37
03/24/2023 16:57, XYZ structure generated by mol3D Class, molSimplify
Fe     0.064951    0.016881    -0.054758
N     0.361129    2.025136    -0.237899
H     0.298217    2.215750    -1.261638
H     1.334989    2.231378    -0.002570
N     -0.459443    2.853411    0.625887
H     0.027326    3.731132    0.829624
H     -1.304218    3.116637    0.117692
N     2.087648    -0.279014    0.334694
H     2.079342    -0.016280    1.345641
H     2.769980    0.327316    -0.136482
N     2.501914    -1.670866    0.275853
H     2.958374    -1.850015    -0.619866
H     3.209541    -1.845464    0.995225
N     -0.257876    -1.998967    0.023677
H     0.659716    -2.372666    0.351623
H     -0.385188    -2.392104    -0.913240
N     -1.415014    -2.407875    0.801577
H     -1.788259    -3.285858    0.429352
H     -1.113017    -2.622009    1.752925
N     -1.985740    0.120897    -0.291803
H     -2.472903    0.915647    0.137653
H     -2.261602    -0.725109    0.248375
N     -2.417381    -0.073661    -1.668923
H     -3.218697    -0.710168    -1.689346
H     -2.756394    0.816552    -2.038434
N     -0.257399    0.356357    1.965367
H     -1.088346    -0.086726    2.375024
H     -0.456605    1.376300    1.917462
N     0.909998    0.170394    2.812733
H     0.941808    0.910263    3.519622
H     0.819293    -0.709132    3.323760
N     0.355760    -0.168389    -2.111077
H     -0.642702    -0.291259    -2.377345
H     0.861995    -1.002595    -2.430399
N     0.828421    1.028447    -2.780961
H     1.840420    0.970436    -2.901166
H     0.430159    1.072814    -3.723233
