13

Fe     0.000045    0.000911    0.000654
N     0.001254    2.165259    0.000834
N     0.002104    3.274431    0.000876
N     2.164466    -0.001842    0.000200
N     3.273637    -0.000925    0.000418
N     -0.001241    -2.163590    0.000108
N     -0.001931    -3.272760    0.000388
N     -2.164382    0.002126    0.000395
N     -3.273553    0.002724    0.000846
N     0.000028    0.000645    2.165027
N     0.000009    0.000431    3.274199
N     0.000092    0.001189    -2.163818
N     0.000127    0.001322    -3.272989
