61

Fe     -0.002902    0.013335    0.016447
C     1.168759    2.980851    -0.149444
N     0.028049    2.115443    0.272770
H     -0.801725    2.464386    -0.205376
H     -0.148471    2.306151    1.259977
H     1.395138    2.805307    -1.203617
H     2.051780    2.761814    0.454485
H     0.929172    4.040190    -0.019498
C     2.935054    -1.192935    -0.374869
N     2.091907    0.035541    -0.306889
H     2.268442    0.574691    -1.154944
H     2.465069    0.621300    0.439596
H     2.654024    -1.789774    -1.244930
H     2.794825    -1.785040    0.532173
H     3.995857    -0.942174    -0.466405
C     -1.254802    -2.909409    -0.344070
N     -0.013697    -2.086448    -0.264386
H     0.514663    -2.255482    -1.120083
H     0.571912    -2.481964    0.471252
H     -1.861784    -2.576609    -1.189821
H     -1.826347    -2.808714    0.580377
H     -1.021157    -3.968075    -0.489253
C     -2.933268    1.212900    0.411556
N     -2.088820    -0.015337    0.367233
H     -2.476598    -0.631512    -0.346514
H     -2.240934    -0.522252    1.239754
H     -2.840549    1.752934    -0.533789
H     -2.610314    1.854721    1.233441
H     -3.987798    0.966211    0.565536
C     0.292431    -0.243127    1.947980
N     0.395118    -0.386696    3.103771
C     1.673544    -0.546188    5.257186
C     2.897202    -0.801284    4.632568
C     4.062320    -0.834918    5.393438
C     4.012049    -0.613082    6.795950
C     2.786494    -0.358774    7.424272
C     1.626401    -0.323455    6.665671
H     2.944162    -0.986093    3.563920
H     5.018222    -1.039695    4.921638
H     2.744418    -0.188020    8.494895
H     0.672276    -0.126273    7.147776
H     4.929364    -0.644526    7.375888
C     0.340561    -0.556904    4.533664
H     -0.308042    0.236787    4.922544
H     -0.174764    -1.509886    4.720226
C     -0.300716    0.277179    -1.908297
N     -0.410263    0.440648    -3.060922
C     -1.680536    0.614611    -5.220068
C     -2.910784    0.360777    -4.613630
C     -4.066986    0.335972    -5.390988
C     -3.999367    0.566614    -6.791552
C     -2.765959    0.821469    -7.402258
C     -1.615581    0.846434    -6.628517
H     -2.974146    0.182110    -3.545200
H     -5.030423    0.139351    -4.931167
H     -2.708999    0.998515    -8.471146
H     -0.654518    1.044063    -7.096935
H     -4.910053    0.543406    -7.382139
C     -0.357424    0.664438    -4.481551
H     0.116665    1.643207    -4.633231
H     0.328130    -0.086530    -4.896595
