25
03/24/2023 16:57, XYZ structure generated by mol3D Class, molSimplify
Fe     -0.001470    0.001139    -0.003329
N     -0.191206    2.029616    0.345240
H     -1.137522    2.310146    0.630650
H     0.417369    2.385545    1.092637
H     0.014370    2.624764    -0.466561
N     2.029987    0.255273    -0.256598
H     2.329964    1.237124    -0.234650
H     2.611121    -0.209353    0.453298
H     2.380785    -0.103111    -1.153234
N     0.197908    -2.035803    -0.296956
H     1.176212    -2.346851    -0.342027
H     -0.225030    -2.611307    0.441604
H     -0.223624    -2.388623    -1.164991
N     -2.031316    -0.322424    0.199110
H     -2.382935    -1.115462    -0.351285
H     -2.322723    -0.524758    1.162534
H     -2.622472    0.469358    -0.085581
N     0.211776    -0.207459    2.043711
H     -0.498688    0.294131    2.591000
H     0.167872    -1.176831    2.381331
H     1.106137    0.146109    2.405526
N     -0.213076    0.279155    -2.038842
H     -1.190292    0.423719    -2.321350
H     0.288970    1.093149    -2.414594
H     0.107928    -0.507282    -2.616683
