13

Fe     0.014641    0.011463    0.025125
N     0.345820    2.080367    -0.271239
P     0.566427    3.539128    -0.469194
N     2.083545    -0.285205    0.356908
P     3.542124    -0.484239    0.577736
N     -0.316743    -2.057368    0.321738
P     -0.537921    -3.516000    0.520013
N     -2.054350    0.308019    -0.306118
P     -3.513073    0.506683    -0.526312
N     -0.282005    0.342744    2.093950
P     -0.480808    0.563693    3.552544
N     0.311635    -0.319641    -2.043402
P     0.511129    -0.540157    -3.501971
