21

Fe     0.000076    -0.000194    0.000354
N     -0.254104    2.195733    0.366810
H     -1.239867    2.412754    0.522136
H     0.249138    2.515347    1.196857
H     0.037815    2.756331    -0.436118
N     2.201543    0.296861    -0.299629
H     2.419774    1.294451    -0.303244
H     2.756291    -0.124175    0.448181
H     2.524301    -0.066026    -1.198652
N     0.254487    -2.196010    -0.365792
H     1.239575    -2.412156    -0.526549
H     -0.032287    -2.755824    0.439543
H     -0.252971    -2.517289    -1.192620
N     -2.201594    -0.296803    0.298478
H     -2.420985    -1.294152    0.297797
H     -2.524371    0.062856    1.198791
H     -2.755452    0.127826    -0.447954
C     0.309090    -0.304982    2.005945
N     0.487165    -0.480350    3.149771
C     -0.309408    0.305162    -2.005165
N     -0.488209    0.480602    -3.148863
