21

Fe     -0.016064    -0.159457    0.029875
O     0.201592    1.801387    0.186556
H     0.085937    2.280087    1.035255
H     0.740810    2.388955    -0.386129
O     1.884712    -0.533426    -0.322399
H     2.541274    0.127741    -0.630233
H     2.386802    -1.231607    0.152885
O     -0.217279    -2.136259    -0.093606
H     0.228882    -2.641249    -0.808538
H     -1.073696    -2.591847    0.060857
O     -1.947120    0.086632    0.243855
H     -2.547736    -0.347159    0.888530
H     -2.364395    0.940701    -0.004674
N     0.239423    -0.416517    2.035493
H     0.280553    -1.418658    2.264040
H     -0.497825    -0.016294    2.631263
H     1.121471    -0.015228    2.382317
N     -0.283127    0.059779    -1.975035
H     -0.393873    1.034765    -2.281590
H     -1.140931    -0.419314    -2.281859
H     0.484796    -0.332928    -2.535985
