21

Fe     0.000001    -0.000026    -0.000002
C     -0.000001    2.332185    0.000001
O     -0.000002    3.455196    0.000000
C     2.332219    0.000072    0.000207
O     3.455188    0.000045    0.000106
C     0.000007    -2.332141    -0.000001
O     -0.000003    -3.455288    -0.000000
C     -2.332254    0.000080    -0.000207
O     -3.455151    0.000043    -0.000106
C     0.000082    0.000202    2.107323
N     0.000244    0.000352    3.268953
C     0.000005    0.000006    4.696900
H     0.610908    -0.843203    5.046443
H     -1.035710    -0.107925    5.046150
H     0.424607    0.950486    5.047201
C     -0.000083    0.000200    -2.107267
N     -0.000245    0.000351    -3.269014
C     -0.000005    0.000007    -4.696896
H     -0.610907    -0.843202    -5.046441
H     1.035708    -0.107925    -5.046149
H     -0.424607    0.950485    -5.047201
