33

Fe     -0.059131    0.062757    0.240877
C     0.439497    3.281842    0.559363
N     0.286680    2.133573    0.581388
C     0.628548    4.722192    0.523228
H     0.366924    5.100469    -0.471224
H     1.674793    4.965906    0.736653
H     -0.011344    5.201545    1.271731
C     3.115428    -0.386337    -0.420287
N     2.022854    -0.250357    -0.059554
C     4.483556    -0.556136    -0.879725
H     5.104768    0.266939    -0.510567
H     4.504274    -0.558786    -1.975172
H     4.886756    -1.504314    -0.508452
C     -0.606524    -3.101325    -0.380303
N     -0.394791    -2.017168    -0.030723
C     -0.873100    -4.458191    -0.826702
H     0.003425    -5.089201    -0.644758
H     -1.097087    -4.453045    -1.899228
H     -1.729800    -4.868485    -0.281450
C     -3.271948    0.554276    0.608380
N     -2.129663    0.360353    0.611335
C     -4.704363    0.798157    0.596706
H     -5.236266    -0.091300    0.951034
H     -5.028097    1.028685    -0.424334
H     -4.943925    1.643552    1.250528
C     0.424534    -0.472003    3.509543
N     0.255323    -0.286399    2.379001
C     0.637300    -0.705637    4.929476
H     -0.297873    -1.031746    5.396817
H     0.975988    0.217461    5.411615
H     1.396955    -1.482070    5.068572
C     -0.330377    0.392172    -1.704728
N     -0.493045    0.582883    -2.852233
