49

Fe     0.000916    0.008488    -0.009613
C     0.018203    5.165401    0.006716
C     1.149573    4.452976    -0.390260
C     1.100117    3.061869    -0.383218
N     0.007315    2.373857    -0.007869
C     -1.080324    3.066333    0.374171
C     -1.118848    4.457619    0.395717
H     0.022853    6.250909    0.013795
H     2.057466    4.960891    -0.698014
H     1.956622    2.465079    -0.680145
H     -1.940970    2.472784    0.665640
H     -2.021958    4.969390    0.710919
C     5.008630    -0.490278    0.164659
C     4.263321    -0.351276    1.336176
C     2.882854    -0.203703    1.237847
N     2.245579    -0.187186    0.052950
C     2.963099    -0.325179    -1.077181
C     4.346062    -0.479337    -1.063945
H     6.087658    -0.605212    0.208266
H     4.739450    -0.355429    2.311395
H     2.232758    -0.094176    2.099672
H     2.374445    -0.302446    -1.989165
H     4.887939    -0.586892    -1.997593
C     -0.023976    -4.959788    -0.012508
C     -0.045247    -4.252564    1.190274
C     -0.038109    -2.862048    1.149884
N     -0.014439    -2.182189    -0.010572
C     0.004783    -2.860456    -1.172120
C     0.001867    -4.250993    -1.214368
H     -0.027167    -6.045778    -0.013261
H     -0.065983    -4.764943    2.146380
H     -0.050762    -2.249122    2.044703
H     0.024614    -2.246157    -2.065997
H     0.020315    -4.762483    -2.171056
C     -5.010954    -0.453277    -0.156652
C     -4.341291    -0.432622    1.067935
C     -2.957283    -0.287986    1.070826
N     -2.245656    -0.167191    -0.064974
C     -2.889848    -0.191993    -1.245842
C     -4.271828    -0.332134    -1.334211
H     -6.090906    -0.561756    -0.192335
H     -4.877955    -0.525262    2.006326
H     -2.361627    -0.259408    1.978016
H     -2.244564    -0.095057    -2.112794
H     -4.754213    -0.344067    -2.306270
O     -0.052259    0.144025    1.860503
H     -0.040699    1.014950    2.284119
O     0.059267    0.143327    -1.877786
H     0.059701    1.012659    -2.304635
