19

Fe     -0.000133    0.000115    -0.009534
N     -0.257605    2.194889    0.374892
H     -1.233736    2.405753    0.585301
H     0.287478    2.524066    1.172938
H     -0.014604    2.754060    -0.444030
N     2.203255    0.304414    -0.312854
H     2.425055    1.300359    -0.294952
H     2.757931    -0.133463    0.423971
H     2.526528    -0.040417    -1.217698
N     0.258506    -2.195409    -0.391671
H     1.238345    -2.407991    -0.581983
H     -0.001857    -2.754823    0.421705
H     -0.271316    -2.522531    -1.200749
N     -2.204144    -0.304165    0.287075
H     -2.431483    -1.297899    0.239783
H     -2.524478    0.016388    1.201839
H     -2.757246    0.157344    -0.436391
F     0.281809    -0.279438    1.729569
F     -0.282312    0.278757    -1.748784
