18

Fe     -0.006704    -0.007726    0.053084
C     -0.394712    -0.324437    -2.264318
O     -0.587874    -0.468019    -3.361072
O     0.289465    1.983061    -0.249923
H     1.147999    2.404846    -0.481208
H     -0.406030    2.674424    -0.334281
O     1.977188    -0.325413    -0.309001
H     2.433941    -0.497410    -1.164261
H     2.668869    -0.350687    0.390810
O     -0.281787    -1.996943    0.372015
H     0.399161    -2.701470    0.278679
H     -1.150810    -2.447042    0.476902
O     -2.007732    0.305581    0.265985
H     -2.439686    0.479372    1.133422
H     -2.723700    0.306896    -0.410411
O     0.302287    0.264888    2.030170
H     0.481737    1.128419    2.467892
H     0.298385    -0.428338    2.729841
