17

Fe     0.002009    0.001932    0.004159
Cl     0.396171    2.354816    0.358751
Cl     2.356237    -0.350168    -0.385487
Cl     -0.392577    -2.350968    -0.350545
Cl     -2.352206    0.353641    0.394554
C     0.496280    -0.512933    3.277048
N     0.322920    -0.349771    2.148732
C     0.715518    -0.715140    4.703211
H     -0.241032    -0.696181    5.234626
H     1.357495    0.078379    5.098183
H     1.198797    -1.681992    4.874567
C     -0.495249    0.513671    -3.268671
N     -0.318972    0.352616    -2.140503
C     -0.718403    0.712596    -4.694681
H     0.236629    0.692244    -5.228764
H     -1.202110    1.679064    -4.866994
H     -1.361579    -0.081808    -5.085906
