17

Fe     -0.026292    -0.078152    0.236682
S     0.446322    2.534038    -0.262608
H     -0.542739    3.156025    0.412775
H     -0.121858    2.682103    -1.477073
S     2.627984    -0.460798    0.539452
H     2.985762    0.615848    1.271034
H     3.086424    0.036103    -0.628284
S     -0.389560    -2.777862    0.508551
H     0.323761    -3.212412    -0.551337
H     0.562617    -3.096039    1.411749
S     -2.708066    -0.068732    -0.348658
H     -3.194564    1.046798    0.235671
H     -2.714518    0.444217    -1.596162
O     -0.297985    0.193505    1.956044
H     -0.670534    0.013000    2.832547
N     0.401864    -0.596009    -2.879480
C     0.231384    -0.431632    -1.734392
