34

Fe     0.078911    0.069544    0.056583
C     0.536958    3.240235    0.552019
N     0.375421    2.101395    0.383740
C     0.738672    4.661302    0.756416
H     0.715203    5.182575    -0.208602
H     1.710681    4.834792    1.234461
H     -0.053987    5.061285    1.400671
C     3.255799    -0.440592    0.452236
N     2.121342    -0.250460    0.279791
C     4.669992    -0.676354    0.664013
H     5.214416    0.275861    0.641182
H     5.060430    -1.333035    -0.123622
H     4.824634    -1.155413    1.638950
C     -0.376526    -3.093046    -0.483516
N     -0.217959    -1.959910    -0.277989
C     -0.573813    -4.505416    -0.744035
H     0.383480    -5.035410    -0.665507
H     -0.977710    -4.644033    -1.754610
H     -1.277282    -4.924937    -0.014400
C     -3.079128    0.593245    -0.457248
N     -1.940260    0.409522    -0.308153
C     -4.497725    0.822131    -0.646069
H     -5.071540    0.180046    0.033838
H     -4.778137    0.588076    -1.680862
H     -4.737061    1.872377    -0.438101
C     -0.432309    -0.390431    3.220071
N     -0.250029    -0.225062    2.083614
C     -0.659713    -0.596802    4.636622
H     -1.708561    -0.868632    4.809165
H     -0.431818    0.323345    5.188698
H     -0.015254    -1.405450    5.003150
O     0.406579    0.359257    -1.966202
H     -0.289087    0.515770    -2.630939
H     1.276220    0.414523    -2.403566
