37

Fe     0.195486    0.091515    0.068132
P     0.405904    2.656885    -0.591715
H     1.582805    2.927336    -1.314945
H     0.490593    3.668157    0.402441
N     -0.806952    2.938293    -1.732128
H     -0.719456    3.777755    -2.307183
H     -1.752046    2.850333    -1.350093
P     2.786386    -0.496572    -0.130530
H     3.755560    0.539811    -0.200431
H     3.077421    -1.181034    -1.325645
N     3.114810    -1.651682    1.050667
H     3.052062    -1.292823    2.006171
H     3.948653    -2.227132    0.924003
P     -0.161224    -2.518616    0.384411
H     -0.197987    -2.883911    1.742021
H     0.825659    -3.414123    -0.097473
N     -1.719851    -2.908052    -0.142095
H     -2.138646    -3.757126    0.240485
H     -1.832422    -2.879623    -1.155743
P     -2.479953    0.302403    0.449616
H     -3.074662    -0.391281    1.533621
H     -3.141816    -0.313821    -0.624691
N     -3.060746    1.901604    0.320555
H     -2.860581    2.505241    1.117143
H     -4.053894    1.985673    0.092402
P     0.590622    0.501058    2.727905
H     -0.011206    -0.549625    3.446285
H     -0.088391    1.600522    3.316971
N     2.197253    0.390752    3.285664
H     2.296470    0.180340    4.281370
H     2.791798    1.187930    3.060477
P     -0.305966    -0.179634    -2.568788
H     0.488451    0.592526    -3.453337
H     -1.580313    0.327162    -2.868222
N     -0.462548    -1.791351    -3.089645
H     0.401006    -2.327619    -3.158273
H     -1.001519    -1.924370    -3.947707
