23

Fe     0.002211    0.003872    0.194158
P     -0.453931    2.733877    0.411807
H     -0.611055    3.182938    1.738878
H     -1.613007    3.220783    -0.224590
H     0.557114    3.578507    -0.088020
P     2.682322    0.412477    -0.374298
H     3.242814    1.605111    0.126136
H     3.025389    0.453334    -1.740354
H     3.549005    -0.574271    0.137987
P     0.311634    -2.654727    -0.543204
H     -0.694270    -3.176844    -1.380379
H     0.319210    -3.559060    0.538503
H     1.494758    -2.983663    -1.234098
P     -2.714959    -0.475010    0.404446
H     -3.454686    0.486072    1.122846
H     -3.058897    -1.677732    1.054298
H     -3.415390    -0.564476    -0.814744
N     0.385095    -0.203242    2.294897
H     0.616657    -1.168491    2.560566
H     -0.420037    0.049481    2.880961
H     1.163629    0.369421    2.643482
C     -0.366820    0.378364    -2.074040
O     -0.546782    0.563274    -3.169876
