23

Fe     0.021925    0.017254    0.012652
N     -0.257064    2.218516    0.326069
H     -1.245355    2.482480    0.367179
H     0.181761    2.657521    1.140481
H     0.116287    2.693569    -0.502064
N     2.222980    0.254090    0.361442
H     2.477304    1.227378    0.552733
H     2.695044    -0.306275    1.076942
H     2.678569    0.035656    -0.530622
N     0.348964    -2.177050    -0.275219
H     1.230572    -2.530775    0.107223
H     -0.373428    -2.823708    0.054803
H     0.413960    -2.314317    -1.289604
N     -2.162583    -0.224125    -0.409014
H     -2.388953    -1.187865    -0.670694
H     -2.848276    0.037133    0.305054
H     -2.376341    0.331847    -1.243371
N     -0.343262    -0.268615    2.215099
H     -1.139494    0.256339    2.588053
H     -0.527475    -1.245981    2.458455
H     0.454325    0.005049    2.796171
C     0.320364    0.340450    -1.943971
N     0.500208    0.521518    -3.089424
