25

Fe     0.039700    -0.049990    0.073316
C     0.725971    2.164059    0.170987
H     1.828022    2.235146    0.128658
O     0.288206    3.356807    0.194765
H     -0.688541    3.476574    0.238062
C     2.181514    -0.955212    -0.018907
H     2.959526    -0.177965    0.088970
O     2.792717    -2.062967    -0.134540
H     2.240550    -2.871794    -0.240023
C     -1.050106    -2.049294    -0.383319
H     -1.105662    -2.688584    0.516165
O     -1.670708    -2.665237    -1.305388
H     -1.712829    -2.228545    -2.187156
C     -2.211555    0.403205    0.493016
H     -2.712730    0.794299    -0.411032
O     -3.098093    0.347782    1.400848
H     -2.816761    0.015658    2.284594
C     0.538314    -0.522812    2.292009
H     0.218531    -1.541182    2.577657
O     1.096441    -0.017737    3.315588
H     1.443038    0.900316    3.231439
C     0.046728    0.685447    -2.134464
H     -0.952604    1.064701    -2.415797
O     0.795460    0.858979    -3.145983
H     1.733460    0.568730    -3.065766
