59

Fe     -0.003459    0.024085    -0.256635
O     -0.002399    0.022642    1.818079
H     0.784862    -0.060117    2.386456
H     -0.730153    0.380659    2.357829
C     -0.332123    4.866102    -0.067015
C     -0.925714    4.161316    -1.115456
C     -0.809083    2.776780    -1.155895
N     -0.136628    2.071129    -0.215601
C     0.442661    2.764262    0.799069
C     0.363460    4.145616    0.907241
H     -0.406670    5.948149    -0.009192
H     -1.476915    4.672271    -1.898128
H     -1.266857    2.213403    -1.955595
H     0.982194    2.187008    1.535637
H     0.844415    4.642864    1.743279
C     4.807090    0.354821    0.471444
C     4.071138    -0.711236    0.990777
C     2.711211    -0.795977    0.715706
N     2.053697    0.123968    -0.035442
C     2.774857    1.162117    -0.528958
C     4.139392    1.303625    -0.304863
H     5.872137    0.442631    0.665070
H     4.539027    -1.479700    1.597714
H     2.128856    -1.626497    1.093160
H     2.238317    1.888785    -1.125132
H     4.663414    2.151119    -0.733952
C     0.353209    -4.844310    -0.048197
C     -0.259952    -4.107117    0.966907
C     -0.342719    -2.725339    0.848132
N     0.152057    -2.050145    -0.221301
C     0.744070    -2.771456    -1.201168
C     0.861389    -4.156062    -1.150107
H     0.432479    -5.925088    0.019091
H     -0.674593    -4.589541    1.846327
H     -0.811881    -2.134650    1.621657
H     1.143730    -2.224447    -2.041899
H     1.349659    -4.676342    -1.967834
C     -4.796510    -0.415368    0.490658
C     -4.082830    0.681592    0.978779
C     -2.729699    0.793000    0.685725
N     -2.055313    -0.125923    -0.053886
C     -2.755771    -1.192563    -0.516469
C     -4.113176    -1.364304    -0.271993
H     -5.857194    -0.526676    0.697209
H     -4.563817    1.450393    1.575076
H     -2.166617    1.651857    1.029322
H     -2.207797    -1.917637    -1.103170
H     -4.618929    -2.235962    -0.674328
C     -0.031050    -0.033162    -5.107415
C     1.164445    -0.078558    -4.390277
C     1.129352    -0.065850    -3.000970
N     -0.027342    -0.006126    -2.290721
C     -1.185440    0.045221    -2.998274
C     -1.224384    0.030430    -4.387246
H     -0.033595    -0.045249    -6.193410
H     2.124597    -0.125603    -4.893594
H     2.050879    -0.117873    -2.442357
H     -2.106103    0.104802    -2.439253
H     -2.186169    0.068798    -4.888441
