27

Fe     0.089065    -0.093056    0.020405
N     -0.113808    1.922177    0.290971
H     -1.098352    2.200963    0.371099
H     0.348590    2.324680    1.114998
H     0.235583    2.442357    -0.522218
N     2.100490    0.140697    -0.261119
H     2.432628    1.088939    -0.048285
H     2.710765    -0.483687    0.280639
H     2.338614    -0.004449    -1.249016
N     0.272613    -2.095750    -0.347408
H     1.246114    -2.378651    -0.508723
H     -0.074638    -2.739129    0.374230
H     -0.219716    -2.342788    -1.213896
N     -1.930888    -0.325956    0.255062
H     -2.208056    -1.313175    0.302084
H     -2.347646    0.101191    1.091092
H     -2.441473    0.058245    -0.548505
N     0.388280    -0.338528    2.025737
H     -0.361517    0.039718    2.616421
H     0.472360    -1.319528    2.314534
H     1.243536    0.106337    2.379700
C     -0.374361    0.362713    -3.078976
N     -0.204218    0.193704    -1.939537
C     -0.586021    0.573348    -4.499945
H     0.376423    0.552512    -5.027876
H     -1.064977    1.547198    -4.666271
H     -1.232550    -0.217348    -4.902811
