31

Fe     -0.109546    0.036927    0.060786
P     0.091552    2.666848    0.521569
H     -0.673733    3.526625    -0.294919
H     -0.255295    3.149256    1.801099
C     1.822443    3.193813    0.269159
H     2.043487    4.250938    0.425230
C     2.789598    2.343105    -0.092363
H     3.812122    2.696131    -0.236349
P     2.485726    0.562037    -0.363669
H     3.420653    -0.097601    0.462433
H     3.027368    0.287904    -1.637211
P     0.250637    -2.616771    0.049739
H     1.396658    -3.129594    -0.593571
H     -0.755791    -3.408720    -0.542728
C     0.365931    -3.212205    1.773297
H     0.494752    -4.286417    1.915665
C     0.299914    -2.390090    2.826770
H     0.372554    -2.782902    3.842202
P     0.093443    -0.583011    2.653626
H     1.167483    -0.021054    3.376265
H     -0.987718    -0.254449    3.497981
P     -2.786258    0.036533    0.034633
H     -3.460271    1.081933    0.699953
H     -3.438127    -1.086710    0.586276
C     -3.368107    0.118542    -1.695282
H     -4.447977    0.116231    -1.852129
C     -2.530068    0.178928    -2.736497
H     -2.915686    0.225234    -3.756252
P     -0.713707    0.192601    -2.538972
H     -0.243288    -0.828612    -3.390775
H     -0.278010    1.337491    -3.239458
