18

Fe     -0.021866    -0.008755    -0.125440
O     0.359669    2.031204    0.296481
H     1.056279    2.490684    -0.213082
H     -0.402230    2.643118    0.320954
O     2.004677    -0.347213    -0.404495
H     2.399121    -0.404547    -1.296949
H     2.719643    -0.412085    0.257186
O     -0.312957    -2.053857    0.236631
H     0.328050    -2.707560    -0.106106
H     -1.200711    -2.438713    0.099082
O     -2.045898    0.303970    0.244410
H     -2.528097    0.339782    1.092586
H     -2.684236    0.433772    -0.484190
O     0.296971    -0.054533    1.986758
H     0.575399    0.700616    2.538216
H     0.254199    -0.841826    2.561388
C     -0.310454    0.120839    -2.053876
N     -0.487163    0.204936    -3.215808
