20

Fe     -0.005081    0.014973    0.078747
N     -0.149806    2.026214    0.420805
H     -1.011000    2.340945    0.876322
H     -0.139496    2.467300    -0.505816
H     0.615196    2.452478    0.952621
N     2.017152    0.135449    -0.102223
H     2.468172    0.964125    0.295971
H     2.143369    0.202584    -1.119557
H     2.580101    -0.656747    0.218884
N     0.156133    -2.004357    -0.203205
H     0.184524    -2.138281    -1.220344
H     -0.628596    -2.567129    0.138652
H     0.997903    -2.451427    0.171056
N     -2.029485    -0.063250    -0.071138
H     -2.582369    0.593201    0.486543
H     -2.470778    -0.976131    0.072536
H     -2.181948    0.175308    -1.058541
C     0.022675    -0.302585    2.123242
O     0.038577    -0.481761    3.235276
F     -0.025235    0.269034    -1.632781
