13

Fe     0.007853    0.007066    0.013012
N     0.261759    1.912195    -0.306689
P     0.463663    3.367302    -0.532400
N     1.907553    -0.318122    -0.273532
P     3.362452    -0.543328    -0.477338
N     -0.245932    -1.898169    0.332582
P     -0.447541    -3.353372    0.557912
N     -1.891587    0.332448    0.299403
P     -3.346437    0.558072    0.503133
N     0.297484    0.264937    1.922597
P     0.525446    0.466113    3.377432
N     -0.281688    -0.251068    -1.896502
P     -0.509847    -0.452806    -3.351231
