37

Fe     -0.000102    -0.002546    -0.000317
C     0.511817    3.168916    -0.463763
N     0.330960    2.033440    -0.297956
C     0.736898    4.586735    -0.671484
H     0.732901    4.810819    -1.744995
H     1.706476    4.876032    -0.248457
H     -0.055192    5.165336    -0.181046
C     3.171136    -0.461913    0.516492
N     2.035792    -0.298753    0.332347
C     4.588909    -0.665422    0.745889
H     5.108451    0.300374    0.743684
H     5.006867    -1.299359    -0.045386
H     4.743071    -1.153542    1.715738
C     -0.517475    -3.172481    0.463747
N     -0.332315    -2.037777    0.297255
C     -0.748893    -4.589062    0.672563
H     0.180615    -5.075057    0.992811
H     -1.092707    -5.051840    -0.260342
H     -1.512964    -4.731227    1.446300
C     -3.170899    0.459103    -0.517026
N     -2.035821    0.293920    -0.333058
C     -4.588121    0.667029    -0.745740
H     -5.170786    0.119665    0.005007
H     -4.861406    0.306288    -1.744695
H     -4.823436    1.735694    -0.673418
C     -0.460234    0.514481    3.170649
N     -0.296682    0.330747    2.035294
C     -0.664528    0.743403    4.588317
H     -1.738224    0.776172    4.809233
H     -0.209012    1.697099    4.881145
H     -0.203696    -0.066584    5.166462
C     0.465553    -0.514961    -3.171272
N     0.297716    -0.334496    -2.036019
C     0.675446    -0.739459    -4.588834
H     1.749576    -0.744029    -4.809904
H     0.193369    0.057764    -5.167419
H     0.245052    -1.704927    -4.881061
