23

Fe     -0.043530    -0.164600    0.030987
N     0.135322    1.836325    -0.382894
H     0.154905    2.387692    0.484645
H     -0.601680    2.259726    -0.960038
H     1.014595    2.067514    -0.862767
N     1.969109    -0.274719    0.416561
H     2.289144    0.493943    1.020508
H     2.540623    -0.207053    -0.435154
H     2.289922    -1.131935    0.882808
N     -0.226809    -2.185474    0.363286
H     -0.533457    -2.415444    1.317277
H     0.618697    -2.751007    0.214627
H     -0.933089    -2.610340    -0.251616
N     -2.070064    -0.029114    -0.257406
H     -2.475029    0.913201    -0.199789
H     -2.617365    -0.596551    0.403139
H     -2.330399    -0.377686    -1.189166
O     -0.266684    0.290602    1.952133
H     -1.039332    0.764077    2.326823
H     0.166045    -0.167620    2.703430
O     0.196360    -0.590972    -1.886489
H     0.017534    0.022752    -2.629741
H     0.728333    -1.327478    -2.256261
