13

Fe     -0.005593    0.000661    0.057310
Cl     0.349408    2.341705    0.423390
Cl     2.327260    -0.394947    0.439095
Cl     -0.358601    -2.339304    -0.309373
Cl     -2.336804    0.397161    -0.322918
P     -0.339568    -0.432906    2.626308
H     0.189863    0.480658    3.569326
H     -1.630746    -0.562353    3.196218
H     0.224658    -1.612360    3.163437
P     0.340377    0.434730    -2.510693
H     1.635035    0.569936    -3.070886
H     -0.177272    -0.482870    -3.456506
H     -0.225877    1.610288    -3.054442
