15

Fe     -0.019057    0.195664    -0.011925
N     -0.001910    3.435845    -0.047356
C     -0.010871    2.264995    -0.035914
N     3.122485    -0.082094    0.939013
C     2.058439    0.023088    0.460768
N     0.019148    -3.218647    -0.104047
C     -0.004418    -2.051148    -0.011326
N     -3.185790    -0.077180    -0.876785
C     -2.097267    0.016645    -0.455442
O     -0.240651    -0.139969    2.141437
H     -0.516481    -1.076762    2.124612
H     0.713703    -0.168155    2.356022
O     0.214776    -0.210413    -2.160398
H     0.426065    -1.163272    -2.084526
H     -0.733540    -0.195351    -2.398037
