31

Fe     0.001375    -0.030401    0.036290
N     0.258865    1.954801    0.288230
H     -0.623655    2.472610    0.323388
C     1.290318    2.708659    0.404160
H     2.294311    2.289510    0.384926
H     1.192683    3.789421    0.529379
N     1.973681    -0.383044    0.241215
H     2.514684    -0.222242    -0.613359
C     2.696327    -0.772148    1.227239
H     2.252519    -0.977193    2.199316
H     3.775495    -0.905113    1.122624
N     -0.256741    -2.015660    -0.215503
H     0.625649    -2.533604    -0.251717
C     -1.288417    -2.769321    -0.330675
H     -2.292343    -2.350095    -0.310264
H     -1.191002    -3.850060    -0.456253
N     -1.971152    0.322662    -0.169239
H     -2.511122    0.168498    0.687205
C     -2.694990    0.704960    -1.157047
H     -2.252553    0.902485    -2.131305
H     -3.773893    0.839499    -1.051748
N     -0.346551    -0.312704    2.001412
H     -0.458685    -1.302067    2.239235
C     -0.466652    0.469652    3.010625
H     -0.367724    1.546794    2.893820
H     -0.667085    0.080348    4.011307
N     0.348709    0.251798    -1.928810
H     0.457229    1.241417    -2.167293
C     0.472010    -0.530828    -2.937429
H     0.377042    -1.608251    -2.819898
H     0.671278    -0.141495    -3.938333
