29

Fe     -0.000712    -0.001593    -0.003864
N     0.296435    1.938749    0.321983
C     0.453073    3.063771    0.523714
C     0.649868    4.484482    0.782953
H     1.304575    4.917385    0.020441
H     -0.313167    5.003625    0.759523
H     1.104336    4.623730    1.768644
N     1.929186    -0.318202    0.301437
C     3.023955    -0.531211    0.598055
C     4.401776    -0.801872    0.987462
H     5.068639    -0.043815    0.565451
H     4.484153    -0.784105    2.078698
H     4.707514    -1.787213    0.622672
N     -0.297921    -1.941790    -0.328047
C     -0.453190    -3.067925    -0.524556
C     -0.646554    -4.490871    -0.773912
H     0.120735    -4.855207    -1.463931
H     -0.578276    -5.047895    0.165497
H     -1.631382    -4.660986    -1.219628
N     -1.930487    0.315397    -0.309010
C     -3.025024    0.532849    -0.603245
C     -4.402392    0.811814    -0.988198
H     -4.875660    1.463991    -0.247811
H     -4.417067    1.306969    -1.964189
H     -4.969697    -0.121597    -1.054704
O     -0.229622    -0.264964    1.792116
H     -1.174937    -0.375944    1.989363
O     0.228216    0.261487    -1.799683
H     1.173642    0.370966    -1.997230
