13

Fe     -0.000482    -0.000481    -0.000003
C     -0.033930    1.919874    -0.000069
O     -0.054489    3.047208    -0.000107
C     1.919932    -0.034018    -0.000068
O     3.047263    -0.054633    -0.000106
C     0.034922    -1.920404    0.000069
O     0.057277    -3.047713    0.000112
C     -1.920462    0.035010    0.000068
O     -3.047768    0.057419    0.000112
C     -0.000491    -0.000492    1.901241
N     -0.000464    -0.000466    3.075582
C     -0.000617    -0.000616    -1.901245
N     -0.000690    -0.000688    -3.075586
