30

Fe     0.043788    -0.007647    0.058281
C     0.198048    -0.050469    -1.849708
O     0.291752    -0.067818    -2.971255
O     -0.000523    -0.076975    2.042467
H     0.518365    0.505627    2.629985
H     -0.721291    -0.476694    2.565069
C     0.001258    1.974555    0.037339
N     -0.028508    3.129840    0.011824
C     -0.063923    4.568363    -0.025280
H     0.759612    4.922279    -0.651788
H     0.039584    4.944465    0.996727
H     -1.025082    4.879071    -0.445546
C     2.024369    0.040383    0.058612
N     3.179656    0.034428    0.027021
C     4.617837    0.016162    -0.026230
H     4.928395    -0.814986    -0.665944
H     5.001922    -0.114140    0.989587
H     4.960324    0.967128    -0.445695
C     -0.046006    -1.984543    -0.030983
N     -0.070513    -3.139606    -0.052708
C     -0.095980    -4.578567    -0.079690
H     -0.939015    -4.895727    -0.701367
H     -0.219113    -4.942268    0.944582
H     0.846641    -4.934173    -0.505273
C     -1.936439    0.014239    0.000443
N     -3.092282    0.017933    -0.011284
C     -4.533096    0.016950    -0.018736
H     -4.876130    -0.593807    -0.858740
H     -4.879909    1.048621    -0.126831
H     -4.883738    -0.402626    0.929444
