42

Fe     -0.001208    0.001937    0.294603
C     0.028608    2.202713    0.016973
N     0.038038    3.344001    -0.186294
C     0.045688    4.758803    -0.432877
H     0.873524    4.993095    -1.107467
H     0.175490    5.280550    0.519149
H     -0.906720    5.039866    -0.890539
C     2.198698    -0.022790    0.163073
N     3.354561    -0.019307    0.082187
C     4.785627    -0.007968    -0.021197
H     5.099711    -0.838063    -0.659383
H     5.212055    -0.119106    0.978694
H     5.097777    0.943584    -0.459604
C     -0.029757    -2.198990    0.016569
N     -0.037929    -3.340316    -0.186456
C     -0.043796    -4.755152    -0.432852
H     -0.872145    -4.990750    -1.106335
H     -0.171663    -5.277030    0.519356
H     0.908462    -5.034822    -0.891658
C     -2.200867    0.024539    0.162850
N     -3.356494    0.018700    0.079748
C     -4.787379    0.004094    -0.026474
H     -5.070244    -0.624773    -0.874794
H     -5.139592    1.027143    -0.181951
H     -5.204637    -0.399885    0.899136
C     -0.001304    0.001788    -1.978700
N     -0.000880    0.000170    -3.138264
C     0.000607    -0.003168    -4.573740
H     -0.617748    -0.833093    -4.925144
H     1.028459    -0.125325    -4.924817
H     -0.407943    0.946078    -4.929597
C     -0.000150    0.000018    5.182648
C     -0.198139    1.188380    4.471091
C     -0.193093    1.152506    3.085412
N     0.000013    0.001310    2.386813
C     0.193564    -1.150445    3.084382
C     0.198513    -1.187595    4.470027
H     -0.000519    -0.000520    6.268855
H     -0.354734    2.132210    4.982927
H     -0.345874    2.055386    2.508236
H     0.347037    -2.052750    2.506475
H     0.355807    -2.131779    4.981031
