21

Fe     0.000154    -0.000049    -0.002324
C     0.000162    2.133493    -0.002310
N     0.000169    3.304764    -0.002028
C     2.133689    -0.000059    -0.005955
N     3.304955    -0.000068    -0.009249
C     0.000140    -2.133589    -0.002972
N     0.000131    -3.304860    -0.003357
C     -2.133390    -0.000037    0.000431
N     -3.304656    -0.000029    0.003456
C     0.002035    -0.000267    3.409851
N     0.001544    -0.000180    2.256239
C     0.003042    -0.000448    4.866634
H     -1.025011    -0.036326    5.239891
H     0.486494    0.908065    5.238637
H     0.548609    -0.873206    5.238284
C     -0.002084    0.000287    -3.414852
N     -0.001393    0.000137    -2.261239
C     -0.003355    0.000547    -4.871639
H     1.024627    0.036444    -5.245091
H     -0.548989    0.873325    -5.243147
H     -0.486876    -0.907943    -5.243608
