49

Fe     0.020415    0.007974    0.137367
C     -0.909476    4.717938    -0.297967
C     -0.085072    4.045872    -1.199287
C     0.155648    2.687661    -1.019435
N     -0.380066    1.993507    0.007369
C     -1.200053    2.641464    0.863811
C     -1.480470    3.996789    0.752850
H     -1.113724    5.777586    -0.416388
H     0.367341    4.558260    -2.041583
H     0.767886    2.124637    -1.710387
H     -1.675684    2.045770    1.637147
H     -2.144859    4.468483    1.468993
C     4.777202    0.753928    -0.397473
C     4.075395    1.433879    0.599953
C     2.714232    1.197611    0.739476
N     2.038076    0.324371    -0.041284
C     2.715154    -0.312727    -1.019656
C     4.078581    -0.126422    -1.222407
H     5.841893    0.916377    -0.533856
H     4.567580    2.144407    1.255445
H     2.136166    1.738271    1.481330
H     2.137771    -0.963139    -1.660912
H     4.575392    -0.664442    -2.022655
C     0.629533    -4.786851    0.125868
C     0.804508    -4.078547    1.315143
C     0.647418    -2.697899    1.307698
N     0.337273    -2.007474    0.189717
C     0.158876    -2.696531    -0.959941
C     0.297989    -4.077714    -1.028026
H     0.745784    -5.865946    0.101554
H     1.058509    -4.581533    2.242064
H     0.758078    -2.140181    2.228922
H     -0.093316    -2.095115    -1.822430
H     0.145380    -4.580196    -1.977257
C     -4.694452    -0.839679    0.262483
C     -4.064489    -0.385073    -0.895795
C     -2.695980    -0.142379    -0.872655
N     -1.957237    -0.328699    0.241765
C     -2.560417    -0.784580    1.361358
C     -3.924509    -1.044725    1.409074
H     -5.761949    -1.037318    0.271523
H     -4.617909    -0.221535    -1.814297
H     -2.143412    0.185575    -1.742604
H     -1.932965    -0.953810    2.229075
H     -4.367485    -1.408948    2.329917
O     0.224269    0.146573    2.164033
H     -0.067812    0.970705    2.595666
H     1.131667    -0.017814    2.482369
F     -0.036676    -0.038354    -1.632207
