35

Fe     -0.047670    0.047021    0.173957
C     0.469811    3.230298    0.554386
N     0.277042    2.097862    0.376534
C     0.710009    4.643342    0.776041
H     0.274814    5.229084    -0.042979
H     1.788998    4.835255    0.820290
H     0.250908    4.954563    1.722366
C     3.114001    -0.421369    -0.390385
N     1.976717    -0.243994    -0.229101
C     4.533447    -0.641562    -0.591695
H     5.065305    0.317457    -0.573076
H     4.702178    -1.126783    -1.560860
H     4.926110    -1.285369    0.204773
C     -0.573912    -3.106388    -0.366075
N     -0.391073    -1.968777    -0.212537
C     -0.802862    -4.525505    -0.558009
H     0.118902    -5.008658    -0.904301
H     -1.591125    -4.678550    -1.305333
H     -1.113958    -4.982719    0.389313
C     -3.230904    0.512817    0.592284
N     -2.094917    0.355585    0.401985
C     -4.648175    0.708464    0.829605
H     -5.030544    -0.091467    1.475391
H     -5.191748    0.690475    -0.123058
H     -4.813881    1.675876    1.319144
C     0.410061    -0.464317    3.372754
N     0.246995    -0.281447    2.236101
C     0.613639    -0.693271    4.790963
H     -0.326443    -1.015542    5.254683
H     0.952749    0.231716    5.272629
H     1.371240    -1.472546    4.937137
P     -0.413774    0.534852    -2.472044
H     0.750064    0.847503    -3.199204
H     -0.980394    -0.510326    -3.225637
H     -1.260464    1.620931    -2.762803
