18

Fe     -0.101330    -0.018696    0.125190
S     -0.611955    2.593040    0.496961
H     0.366361    3.059825    1.305439
H     -0.068122    3.088526    -0.637480
S     2.496829    0.436474    0.644718
H     3.050963    -0.727231    1.053213
H     2.961431    0.347462    -0.621837
S     0.099410    -2.671978    -0.227003
H     0.866529    -3.173914    0.766447
H     1.063279    -2.719034    -1.172798
S     -2.747411    -0.433646    -0.210192
H     -2.682468    -1.138119    -1.362752
H     -3.083528    0.723273    -0.825141
S     -0.510284    -0.515061    2.704202
H     0.157337    0.429848    3.402686
H     -1.736238    -0.012659    2.970073
C     0.154477    0.283325    -1.790967
N     0.325008    0.449228    -2.940807
