48

Fe     -0.044952    -0.148472    -0.005909
C     -0.001830    0.051104    2.311615
O     0.003595    0.175775    3.431280
O     -0.001816    2.215200    0.030690
C     0.967252    2.985560    0.678573
C     0.747527    4.313659    0.437990
C     -0.405860    4.403343    -0.390125
C     -0.835888    3.125368    -0.619209
H     1.698648    2.448155    1.261911
H     1.342631    5.133403    0.820900
H     -1.673969    2.708811    -1.153529
H     -0.871328    5.306277    -0.765736
O     2.126778    0.030538    -0.040378
C     3.068534    -0.642475    0.759327
C     4.316670    -0.198637    0.466818
C     4.188683    0.796237    -0.556875
C     2.866500    0.918670    -0.846831
H     2.674713    -1.388495    1.432199
H     5.233993    -0.544853    0.926744
H     2.302336    1.513046    -1.546647
H     4.991341    1.350480    -1.027424
O     -0.082016    -2.329487    0.033676
C     0.051901    -3.158832    1.163272
C     -0.170316    -4.449367    0.818908
C     -0.462367    -4.471248    -0.585857
C     -0.408118    -3.192900    -1.031285
H     0.288692    -2.666459    2.092686
H     -0.131413    -5.300433    1.487125
H     -0.530171    -2.721455    -1.992007
H     -0.682528    -5.344474    -1.186748
O     -2.194488    -0.053059    0.027470
C     -2.980166    0.778661    0.854412
C     -4.291733    0.530465    0.629561
C     -4.371607    -0.493961    -0.373960
C     -3.105362    -0.827063    -0.719690
H     -2.441875    1.443403    1.511189
H     -5.122222    1.017928    1.124298
H     -2.671639    -1.542293    -1.399385
H     -5.274505    -0.928708    -0.783763
O     0.034774    -0.164791    -2.225105
C     1.078206    -0.729405    -2.978243
C     0.904480    -0.433616    -4.294354
C     -0.290249    0.346191    -4.402982
C     -0.791448    0.494592    -3.147986
H     1.810552    -1.295536    -2.425442
H     1.551972    -0.744714    -5.104456
H     -1.684960    0.944478    -2.747087
H     -0.728413    0.738560    -5.312093
