32

Fe     -0.102977    -0.110870    0.014269
C     -0.446827    2.078553    -0.189035
N     -0.644611    3.198264    -0.414342
C     -0.894255    4.572682    -0.724786
H     -0.225447    4.877801    -1.533318
H     -0.710377    5.179299    0.164997
H     -1.934182    4.678571    -1.043357
C     2.081612    0.211491    -0.261146
N     3.203398    0.358819    -0.513272
C     4.582730    0.533818    -0.851592
H     4.884291    -0.270188    -1.527425
H     5.180527    0.501674    0.062314
H     4.705327    1.500637    -1.345892
C     0.263350    -2.271528    0.406579
N     0.432887    -3.415096    0.491513
C     0.637214    -4.829617    0.563452
H     -0.225725    -5.332920    0.120548
H     0.746937    -5.122067    1.610335
H     1.541902    -5.083591    0.005669
C     -2.258682    -0.406239    0.485359
N     -3.398512    -0.577846    0.607840
C     -4.808175    -0.794946    0.724338
H     -5.278818    0.119263    1.093943
H     -4.984867    -1.615073    1.424371
H     -5.206525    -1.049916    -0.260788
C     0.235618    0.247259    2.251251
N     0.404619    0.428908    3.385305
C     0.612480    0.651965    4.783964
H     1.278853    -0.121902    5.172521
H     -0.350475    0.607069    5.298365
H     1.063949    1.637087    4.924024
F     -0.370806    -0.382343    -1.684199
