52

Fe     0.145134    -0.048870    0.119318
C     0.026317    0.025381    2.278861
N     -0.068261    0.058534    3.434638
C     -0.187323    0.098044    4.866493
H     0.422954    -0.703263    5.291326
H     -1.236767    -0.042319    5.138091
H     0.164989    1.070045    5.221561
O     0.066136    2.144110    -0.015936
C     0.925127    3.042962    0.630884
C     0.579237    4.315650    0.311183
C     -0.545588    4.242542    -0.573957
C     -0.833488    2.927101    -0.759635
H     1.697959    2.600046    1.239209
H     1.070383    5.213475    0.664065
H     -1.577560    2.391878    -1.326293
H     -1.074922    5.075688    -1.018691
O     2.376948    -0.119735    0.016235
C     3.268373    -0.041457    1.095270
C     4.543069    -0.188379    0.656224
C     4.482581    -0.374448    -0.763288
C     3.173723    -0.332793    -1.118887
H     2.818667    0.090230    2.066073
H     5.433353    -0.173350    1.271353
H     2.647421    -0.417892    -2.054712
H     5.318462    -0.526571    -1.433802
O     0.087600    -2.216766    0.041872
C     -0.749988    -3.040026    0.817516
C     -0.523970    -4.337795    0.503569
C     0.495424    -4.364423    -0.508569
C     0.844880    -3.081405    -0.767721
H     -1.392144    -2.530928    1.518258
H     -1.018468    -5.192750    0.946695
H     1.570416    -2.612243    -1.412431
H     0.919263    -5.243461    -0.977151
O     -2.239992    -0.031117    0.108598
C     -3.033017    0.912966    0.756462
C     -4.352100    0.692051    0.472337
C     -4.408258    -0.443008    -0.384585
C     -3.121031    -0.856785    -0.584327
H     -2.511909    1.632821    1.368503
H     -5.187980    1.271483    0.843753
H     -2.683971    -1.689084    -1.108865
H     -5.294600    -0.907803    -0.796074
O     0.120477    0.015360    -2.179812
C     -0.606709    -0.828771    -3.024457
C     -0.626217    -0.319889    -4.288006
C     0.114448    0.900183    -4.260957
C     0.553553    1.078447    -2.982662
H     -0.957634    -1.748100    -2.585305
H     -1.103269    -0.772279    -5.148035
H     1.158988    1.825945    -2.494876
H     0.308286    1.560915    -5.096391
