13
03/24/2023 16:57, XYZ structure generated by mol3D Class, molSimplify
Fe     -0.051231    0.014325    0.008968
O     0.568869    1.744926    0.533260
S     2.003173    2.319335    0.398391
S     3.003173    0.654439    -0.279517
O     1.855843    -0.369423    -0.329992
O     -0.404830    -1.845149    -0.419045
S     -0.552212    -3.040373    0.556668
S     -0.082067    -2.117391    2.338578
O     0.156045    -0.682291    1.846756
O     -1.881946    0.365292    0.348932
S     -2.865013    0.890937    -0.732208
S     -1.664234    0.999653    -2.377001
O     -0.296919    0.526694    -1.814077
