21

Fe     0.005434    -0.001729    -0.022996
P     -0.456131    2.651791    -0.340570
H     -1.407657    3.240421    0.518707
H     0.632421    3.514008    -0.092138
H     -0.891681    3.153011    -1.584512
P     2.665806    0.375542    -0.403203
H     3.180083    1.649229    -0.081445
H     3.527281    -0.417890    0.382897
H     3.240539    0.188813    -1.677358
P     0.397309    -2.653179    0.389768
H     1.732681    -3.107033    0.341976
H     0.011135    -3.202215    1.630135
H     -0.195472    -3.573576    -0.498965
P     -2.652130    -0.386769    0.347370
H     -3.170262    -1.647799    -0.015715
H     -3.227432    -0.238527    1.626372
H     -3.511342    0.433677    -0.413312
C     0.329004    0.343538    1.930469
N     0.535608    0.551159    3.065028
C     -0.281985    -0.336484    -1.980147
N     -0.468744    -0.537564    -3.119305
