67
03/24/2023 16:57, XYZ structure generated by mol3D Class, molSimplify
Fe     -0.040672    -0.028170    0.005205
P     -0.412759    2.503697    -0.417932
C     -0.881326    5.557135    -0.753766
C     0.441098    5.091144    -0.722598
C     0.786088    3.752211    -0.568439
C     -1.931133    3.345696    -0.478395
C     -2.004752    4.726205    -0.635348
H     -1.044960    6.624008    -0.875309
H     1.243456    5.818341    -0.822356
H     1.835621    3.472003    -0.549551
H     -2.848940    2.770177    -0.397979
H     -2.989369    5.186509    -0.668983
P     2.489371    0.389227    0.392488
C     5.525207    0.873272    0.840152
C     4.634776    1.296947    1.836977
C     3.254728    1.135556    1.761260
C     3.799542    -0.030633    -0.667578
C     5.125503    0.241188    -0.346030
H     6.586433    1.043643    0.996399
H     5.046412    1.777341    2.721452
H     2.631602    1.488742    2.578227
H     3.568361    -0.521883    -1.608421
H     5.895277    -0.051574    -1.056122
P     0.308007    -2.562338    0.431032
C     0.706977    -5.602984    0.922556
C     1.684742    -4.721870    1.406599
C     1.628331    -3.340530    1.247599
C     -0.735939    -3.862179    -0.055891
C     -0.438739    -5.192022    0.226174
H     0.845750    -6.666087    1.096386
H     2.537327    -5.142149    1.934776
H     2.428733    -2.724876    1.648929
H     -1.647165    -3.621988    -0.596645
H     -1.136269    -5.955377    -0.110420
P     -2.567147    -0.445665    -0.395468
C     -5.611521    -0.802109    -0.899194
C     -5.165256    -0.732267    0.428632
C     -3.831801    -0.567363    0.789112
C     -3.385548    -0.551544    -1.923911
C     -4.764563    -0.714527    -2.013337
H     -6.675729    -0.930111    -1.074783
H     -5.904224    -0.810031    1.222599
H     -3.566232    -0.521199    1.841628
H     -2.796766    -0.492251    -2.835037
H     -5.210264    -0.777469    -3.003217
P     -0.474045    0.348662    2.535646
C     -0.806707    0.829100    5.587850
C     -0.725252    -0.494416    5.132053
C     -0.566540    -0.844326    3.794692
C     -0.592327    1.870194    3.365249
C     -0.741337    1.948979    4.746744
H     -0.926773    0.996498    6.654275
H     -0.787018    -1.294203    5.866261
H     -0.505012    -1.894529    3.523432
H     -0.558910    2.785885    2.781736
H     -0.813228    2.935302    5.198959
P     0.422933    -0.397537    -2.521360
C     1.196402    -0.762646    -5.508476
C     0.770295    0.504968    -5.087022
C     0.404307    0.801579    -3.777827
C     0.987044    -1.842459    -3.303630
C     1.298615    -1.873919    -4.659537
H     1.463249    -0.891086    -6.553468
H     0.726003    1.302828    -5.824550
H     0.089658    1.811082    -3.528483
H     1.086709    -2.749146    -2.713636
H     1.639713    -2.814703    -5.085152
