57

Fe     0.012072    -0.005706    -0.005610
C     0.050805    -0.140595    2.238146
N     0.063514    -0.166412    3.397721
C     0.076422    -0.187674    4.833283
H     0.618703    -1.074707    5.169330
H     -0.954570    -0.218373    5.194292
H     0.573711    0.716189    5.193886
C     0.018853    0.220606    -2.238265
N     0.030065    0.347579    -3.391237
C     0.038577    0.505703    -4.819131
H     -0.681591    -0.191351    -5.255201
H     1.042864    0.290888    -5.193494
H     -0.240034    1.534340    -5.061927
C     -0.042566    4.951388    0.406604
C     0.847021    4.188922    1.169114
C     0.834002    2.806496    1.035366
N     -0.017649    2.165300    0.199313
C     -0.882782    2.908575    -0.532675
C     -0.920263    4.294613    -0.460512
H     -0.052379    6.034444    0.485766
H     1.544500    4.655742    1.856888
H     1.520777    2.185534    1.599695
H     -1.558968    2.365321    -1.183100
H     -1.627535    4.845670    -1.071876
C     4.975342    -0.066728    -0.058531
C     4.256496    -0.971806    0.727274
C     2.869223    -0.921576    0.710636
N     2.183125    -0.023038    -0.036287
C     2.884259    0.854648    -0.794225
C     4.272306    0.861007    -0.832647
H     6.061188    -0.084125    -0.068175
H     4.760561    -1.708791    1.344089
H     2.280352    -1.617175    1.297512
H     2.307308    1.567500    -1.372425
H     4.791984    1.581491    -1.456093
C     -0.070355    -4.960149    -0.352909
C     -0.871155    -4.293351    0.578516
C     -0.821582    -2.907481    0.636921
N     -0.015195    -2.174285    -0.168316
C     0.762985    -2.824419    -1.066301
C     0.758149    -4.207750    -1.190396
H     -0.091273    -6.043604    -0.424635
H     -1.529073    -4.836561    1.248801
H     -1.441163    -2.355906    1.334818
H     1.403509    -2.210255    -1.689059
H     1.393273    -4.684488    -1.929526
C     -4.954529    -0.121737    -0.000085
C     -4.225731    -0.814211    -0.971476
C     -2.838788    -0.757825    -0.938619
N     -2.163104    -0.047753    -0.003155
C     -2.873472    0.623353    0.935298
C     -4.261606    0.606429    0.971301
H     -6.040151    -0.149937    -0.000460
H     -4.722653    -1.393965    -1.742514
H     -2.242101    -1.294145    -1.668317
H     -2.305001    1.187277    1.666300
H     -4.786646    1.155795    1.746080
