21

Fe     -0.000001    0.000009    0.001230
C     0.000283    2.001058    0.001259
O     0.000440    3.123232    0.001229
C     1.985234    0.000004    0.002103
O     3.107816    0.000017    0.002708
C     -0.000273    -2.001039    0.001393
O     -0.000417    -3.123213    0.001513
C     -1.985234    0.000027    0.000439
O     -3.107816    0.000026    -0.000116
C     -0.002548    -0.000558    3.070151
N     -0.000675    -0.000120    1.900361
C     -0.003824    -0.001103    4.507641
H     -1.034991    -0.035831    4.888640
H     0.496419    0.909851    4.878784
H     0.559013    -0.874319    4.878957
C     0.002547    0.000547    -3.067654
N     0.000675    0.000121    -1.897861
C     0.003819    0.001079    -4.505140
H     1.034982    0.035803    -4.886149
H     -0.559026    0.874288    -4.876462
H     -0.496433    -0.909878    -4.876271
