22

Fe     -0.061046    0.045802    -0.014784
N     -0.301927    2.234722    0.370267
H     -1.289120    2.477873    0.489900
H     0.189447    2.664562    1.158650
H     -0.011409    2.742279    -0.471038
N     2.140270    0.312339    -0.284621
H     2.413371    1.294797    -0.190810
H     2.786095    -0.215649    0.309016
H     2.368351    0.070790    -1.254021
N     0.184606    -2.154778    -0.314076
H     1.169059    -2.424305    -0.394046
H     -0.226590    -2.805022    0.361491
H     -0.229139    -2.385918    -1.222983
N     -2.247273    -0.257259    0.367384
H     -2.482523    -1.236245    0.550519
H     -2.699636    0.278012    1.113666
H     -2.740378    -0.017688    -0.498527
N     0.313592    -0.211378    2.179844
H     -0.482286    0.061945    2.762599
H     0.510884    -1.182854    2.434699
H     1.108422    0.327127    2.535323
Cl     -0.412699    0.380924    -2.201321
