18

Fe     -0.022063    0.013208    -0.003337
C     -0.275219    0.345159    -1.994071
O     -0.416946    0.543884    -3.088762
O     0.319299    1.883470    0.341876
H     1.029102    2.416883    -0.085541
H     -0.422178    2.488051    0.576881
O     1.867717    -0.294747    -0.325423
H     2.393165    -0.202616    -1.151835
H     2.491966    -0.442564    0.419259
O     -0.292819    -1.888276    -0.200403
H     0.269868    -2.459495    -0.772453
H     -1.157704    -2.339788    -0.064057
O     -1.891147    0.321776    0.369895
H     -2.253513    0.195382    1.276805
H     -2.634061    0.438266    -0.264929
O     0.151143    -0.271431    1.934315
H     0.525067    0.411779    2.534189
H     0.318324    -1.158941    2.321918
