19

Fe     0.000118    -0.010835    -0.012207
S     -0.207134    2.555544    0.405623
C     1.346741    3.060063    0.197623
H     1.536214    4.132115    0.316336
C     2.506877    2.222992    -0.128494
H     3.469730    2.737049    -0.217948
S     2.510936    0.595371    -0.379485
S     0.422097    -2.574430    -0.265187
C     0.699840    -3.029950    1.292567
H     0.900040    -4.092522    1.466512
C     0.712878    -2.159671    2.473817
H     0.932024    -2.640810    3.432901
S     0.428810    -0.538000    2.506887
S     -2.570047    -0.407092    0.195801
C     -3.069298    -0.229230    -1.363392
H     -4.139464    -0.359889    -1.555603
C     -2.230838    0.093058    -2.523599
H     -2.744763    0.188419    -3.485966
S     -0.600004    0.321620    -2.529822
