37
03/24/2023 16:57, XYZ structure generated by mol3D Class, molSimplify
Fe     0.029255    -0.006693    0.074014
N     -0.106818    2.179664    -0.434975
H     -1.045873    2.422092    -0.767182
H     0.497256    2.275914    -1.257312
P     0.497378    3.414728    0.810134
H     0.415249    4.572485    -0.002386
H     -0.762911    3.595474    1.431078
N     2.209034    0.327062    0.488159
H     2.516787    -0.151827    1.340674
H     2.219111    1.325131    0.737862
P     3.431619    0.116178    -0.891556
H     4.577089    0.594519    -0.207540
H     3.686556    -1.252149    -0.618858
N     0.331734    -2.202164    0.344661
H     0.071007    -2.420028    1.318266
H     1.351375    -2.308065    0.319970
P     -0.345321    -3.451592    -0.848823
H     0.221018    -4.606256    -0.253573
H     -1.599717    -3.574218    -0.199548
N     -2.164520    -0.264610    -0.158689
H     -2.355031    -1.235306    0.110962
H     -2.361676    -0.223059    -1.169957
P     -3.344887    0.789864    0.805716
H     -3.405085    1.821769    -0.164878
H     -4.546126    0.159377    0.396424
N     -0.289110    0.358844    2.262084
H     -1.288543    0.606375    2.306739
H     0.211482    1.200028    2.568709
P     -0.037578    -1.027515    3.468887
H     1.294734    -0.669727    3.796024
H     -0.620738    -0.406359    4.601138
N     0.277443    -0.341630    -2.125543
H     0.236667    -1.369040    -2.194389
H     1.237529    -0.092639    -2.400084
P     -0.974283    0.300548    -3.326791
H     -0.289709    1.512391    -3.594602
H     -0.500771    -0.374329    -4.479058
