46

Fe     0.001692    -0.100732    -0.110379
O     -0.097604    -0.037115    2.023608
H     0.257305    0.671954    2.592017
H     -0.815182    -0.458153    2.533550
C     -0.026702    -0.034385    -2.266741
N     -0.029697    0.033490    -3.425054
C     -0.015902    0.123944    -4.859977
H     -0.790915    -0.531439    -5.265861
H     0.968590    -0.188387    -5.219058
H     -0.210476    1.160243    -5.148599
O     0.021046    2.238429    -0.082137
C     -0.936305    3.116775    -0.588359
C     -0.569341    4.407216    -0.325690
C     0.676098    4.356497    0.363406
C     1.007049    3.037085    0.494363
H     -1.769130    2.665393    -1.105523
H     -1.126828    5.293505    -0.601637
H     1.849480    2.517166    0.924062
H     1.260656    5.197169    0.715268
O     2.247409    -0.048356    -0.003304
C     3.047518    -0.500277    1.053128
C     4.359892    -0.287333    0.764602
C     4.413771    0.331256    -0.523109
C     3.132249    0.464922    -0.960966
H     2.524071    -0.920107    1.896421
H     5.198999    -0.542001    1.399576
H     2.683192    0.853659    -1.861006
H     5.302609    0.637513    -1.059849
O     0.065350    -2.350545    -0.009334
C     0.356080    -3.137888    1.110098
C     0.227189    -4.457313    0.798820
C     -0.160694    -4.528738    -0.574202
C     -0.247685    -3.250734    -1.033692
H     0.616338    -2.602334    2.008661
H     0.391358    -5.288307    1.473677
H     -0.464057    -2.815261    -1.995874
H     -0.348564    -5.424574    -1.151982
O     -2.257505    -0.013836    -0.030314
C     -3.034711    0.818329    0.787660
C     -4.354863    0.586133    0.557389
C     -4.438089    -0.435250    -0.440916
C     -3.164742    -0.772546    -0.777488
H     -2.493709    1.478736    1.446022
H     -5.181044    1.084896    1.047312
H     -2.734409    -1.481417    -1.466175
H     -5.340461    -0.867276    -0.854145
