32

Fe     -0.132326    -0.124137    0.085063
P     0.209616    2.243568    -0.369652
H     1.187289    2.838558    0.450071
H     -0.884343    3.115257    -0.209164
H     0.659538    2.597279    -1.657165
P     2.243830    -0.468214    -0.307643
H     2.763432    -0.018009    -1.537051
H     2.752689    -1.780448    -0.255373
H     3.067539    0.203404    0.615263
P     -0.490029    -2.508139    0.411476
H     -1.445195    -3.132416    -0.414159
H     -0.962876    -2.831716    1.696973
H     0.610292    -3.375748    0.271877
P     -2.528665    0.197799    0.366137
H     -3.032990    1.512568    0.376404
H     -3.028425    -0.321060    1.575685
H     -3.375797    -0.413939    -0.579111
C     0.638623    0.555468    4.803561
C     -0.209248    1.404225    4.084869
C     -0.409195    1.174453    2.731430
N     0.183107    0.149226    2.053368
C     1.006298    -0.669887    2.768926
C     1.254364    -0.500303    4.123294
H     0.814286    0.711783    5.864442
H     -0.712645    2.238769    4.563556
H     -1.062610    1.831495    2.169073
H     1.475639    -1.491433    2.239290
H     1.920526    -1.189618    4.633313
P     -0.547861    -0.432132    -2.338024
H     -1.432086    0.486673    -2.936503
H     -1.104694    -1.662226    -2.738545
H     0.571901    -0.341109    -3.187249
