25

Fe     0.001630    0.005398    0.003430
P     -0.467319    2.712329    0.455098
H     -1.366271    3.025791    1.494905
H     0.659546    3.487060    0.798238
H     -1.005611    3.437385    -0.627582
P     2.738871    0.327730    -0.390321
H     3.224920    1.650819    -0.427792
H     3.576309    -0.268734    0.574495
H     3.245900    -0.207682    -1.591882
P     0.318619    -2.727296    -0.418258
H     1.625885    -3.203155    -0.646148
H     -0.119681    -3.555415    0.635278
H     -0.386362    -3.254687    -1.519523
P     -2.715813    -0.499374    0.345458
H     -3.146533    -1.838946    0.266112
H     -3.257398    -0.088860    1.580822
H     -3.571462    0.139766    -0.575275
N     0.388858    -0.189285    2.147982
H     -0.427291    0.044790    2.724390
H     0.641142    -1.144701    2.425714
H     1.147667    0.403310    2.503329
N     -0.235870    0.396376    -2.137919
H     -1.212143    0.584697    -2.391238
H     0.292236    1.202957    -2.490006
H     0.045380    -0.390244    -2.734017
