31

Fe     -0.011776    0.001821    -0.001855
P     -0.205855    2.680998    -0.335185
H     -1.363511    3.178614    -0.977616
H     -0.348365    3.352980    0.898699
P     1.457649    3.874064    -1.294448
H     1.307280    3.260485    -2.567910
P     3.311347    2.711976    -0.720323
H     3.194291    2.946465    0.676807
P     2.564752    0.581053    -0.603147
H     3.570665    -0.068557    0.149783
H     2.921001    0.099986    -1.882384
P     0.547405    -2.586514    0.568872
H     1.841223    -2.941139    0.127342
H     -0.186304    -3.587164    -0.110139
P     0.602067    -3.345837    2.697831
H     -0.795155    -3.191599    2.909496
P     1.209114    -1.511400    3.873048
H     2.491470    -1.390253    3.271631
P     0.304317    0.179996    2.677447
H     -0.929947    0.354905    3.341048
H     0.974244    1.320007    3.179617
P     -2.693805    -0.232909    0.175973
H     -3.045510    -1.435468    0.829201
H     -3.393778    0.672877    1.006017
P     -3.989974    -0.353174    -1.670714
H     -3.711184    0.978333    -2.083059
P     -2.629297    -1.337488    -3.186545
H     -2.537915    -2.579328    -2.500962
P     -0.572066    -0.639647    -2.561803
H     -0.409772    0.484037    -3.403487
H     0.292291    -1.533894    -3.234663
