19

Fe     -0.051468    -0.168831    0.007846
N     0.161780    1.860999    0.018952
H     -0.241888    2.286323    0.857366
H     -0.256150    2.297306    -0.806331
H     1.145109    2.135804    0.013056
N     1.979344    -0.320683    0.003956
H     2.395812    0.094568    0.841287
H     2.391559    0.115034    -0.825047
H     2.293252    -1.293181    -0.009489
N     -0.268546    -2.198245    0.003652
H     -1.253461    -2.467257    0.006383
H     0.141852    -2.632174    0.834074
H     0.137420    -2.630203    -0.830128
N     -2.082352    -0.017069    0.006856
H     -2.395589    0.955667    0.008568
H     -2.497230    -0.443993    0.839129
H     -2.496636    -0.440657    -0.827479
I     -0.051162    -0.172984    2.695338
I     -0.051288    -0.163367    -2.678997
