21

Fe     -0.000071    0.000243    -0.005704
C     0.319628    1.918714    0.268502
N     0.509533    3.060638    0.433070
C     1.916609    -0.277065    -0.333804
N     3.057844    -0.441926    -0.527542
C     -0.319625    -1.918338    -0.280404
N     -0.509525    -3.060225    -0.445217
C     -1.916772    0.277647    0.322261
N     -3.058051    0.442397    0.515860
C     0.449297    -0.483681    2.998689
N     0.282423    -0.305931    1.872996
C     0.658213    -0.706423    4.422503
H     -0.301211    -0.684526    4.948829
H     1.306160    0.074818    4.832228
H     1.130310    -1.680579    4.584126
C     -0.449298    0.483744    -3.009998
N     -0.282520    0.306324    -1.884239
C     -0.658105    0.705922    -4.433912
H     0.301379    0.683940    -4.960130
H     -1.130340    1.679933    -4.595989
H     -1.305855    -0.075608    -4.843398
