33

Fe     -0.000910    0.001198    -0.289638
C     -0.001409    0.001159    2.141181
O     0.000927    0.001169    3.267425
C     -0.003008    2.170123    -0.074404
N     -0.001132    3.323841    0.027749
C     0.004696    4.753447    0.154024
H     0.841825    5.151378    -0.426797
H     0.120101    5.009419    1.211477
H     -0.942962    5.142873    -0.228950
C     2.168100    0.003367    -0.074438
N     3.321882    0.002823    0.027451
C     4.751493    -0.000527    0.153826
H     5.006732    -0.072221    1.215270
H     5.142827    0.929630    -0.268240
H     5.148166    -0.861900    -0.391329
C     0.002811    -2.168062    -0.076131
N     0.001622    -3.321806    0.026634
C     -0.002872    -4.751351    0.153244
H     -0.840296    -5.150587    -0.426340
H     -0.116860    -5.006549    1.210976
H     0.944755    -5.140178    -0.230488
C     -2.169210    -0.003070    -0.073049
N     -3.322948    -0.003297    0.028700
C     -4.752952    -0.001091    0.150782
H     -5.171927    -0.622573    -0.646085
H     -5.109055    1.028736    0.057518
H     -5.021041    -0.407024    1.130712
C     -0.002004    0.002027    -2.425738
N     -0.001726    0.000933    -3.583732
C     0.000552    -0.002227    -5.017967
H     -0.615945    -0.836874    -5.365553
H     1.031898    -0.121029    -5.363898
H     -0.412128    0.948241    -5.369837
