15

Fe     -0.033957    -0.037930    -0.053452
C     -0.395318    2.247248    -0.310077
O     -0.577649    3.345475    -0.476576
C     2.250467    0.303030    -0.401636
O     3.356756    0.491809    -0.490279
C     0.348166    -2.299747    0.348200
O     0.530060    -3.398092    0.514405
C     -2.309941    -0.365529    0.359825
O     -3.390774    -0.515139    0.637248
N     0.290728    0.305926    2.082076
C     0.469289    0.503085    3.283284
O     0.640734    0.692954    4.426046
O     -0.335504    -0.356646    -2.077521
H     -1.197056    -0.464333    -2.525087
H     0.353993    -0.452120    -2.762910
