15

Fe     0.015885    -0.038377    0.028042
C     0.321989    1.879112    -0.199028
O     0.493536    2.988990    -0.281396
C     1.926844    -0.318005    0.323272
O     3.027978    -0.481420    0.491299
C     -0.311276    -1.943984    0.351925
O     -0.507207    -3.026863    0.589896
C     -1.888527    0.221064    -0.343934
O     -2.981322    0.363782    -0.572830
N     -0.264846    0.252948    1.873669
C     -0.444850    0.555731    3.044535
O     -0.617880    0.825042    4.170921
O     0.267922    -0.366750    -1.956417
H     0.470006    -1.233292    -2.356561
H     0.491701    0.322085    -2.609886
