15

Fe     0.004126    -0.000177    0.132261
C     0.013513    2.322849    0.045997
O     0.016988    3.446591    0.085679
C     2.326862    0.001084    0.064302
O     3.450276    0.001686    0.111751
C     0.013188    -2.322764    0.035477
O     0.016423    -3.446685    0.069757
C     -2.318691    0.001714    0.016815
O     -3.442846    0.002557    0.043792
N     -0.042273    -0.007178    3.254974
C     -0.025002    -0.004230    2.065778
P     0.000834    0.001642    -2.598433
H     -0.560402    1.138479    -3.212423
H     -0.712214    -1.048665    -3.209094
H     1.259216    -0.086905    -3.225077
