13

Fe     -0.027524    -0.027478    -0.001823
Cl     -0.382767    2.352129    -0.386816
Cl     2.358245    0.373588    0.360432
Cl     0.332847    -2.408951    0.385272
Cl     -2.396489    -0.423967    -0.360019
N     -0.336481    0.316242    2.102970
H     -1.281079    0.670723    2.230374
H     -0.219975    -0.579736    2.571175
H     0.359599    0.987709    2.416424
N     0.355536    -0.281449    -2.102967
H     -0.460434    0.036291    -2.620120
H     1.182078    0.260912    -2.342467
H     0.516597    -1.275418    -2.252432
