30

Fe     -0.000983    0.003310    0.049666
N     -0.320256    1.891593    -0.234089
C     -0.533807    3.015341    -0.436633
C     -0.798541    4.418631    -0.682899
H     -0.980148    4.937885    0.266845
H     0.063373    4.876107    -1.186181
H     -1.682831    4.520376    -1.325826
N     1.887271    0.262290    -0.273186
C     3.016184    0.415423    -0.501721
C     4.424740    0.608819    -0.778853
H     4.549607    1.345947    -1.582256
H     4.937148    0.963406    0.125120
H     4.873403    -0.343436    -1.092698
N     0.312366    -1.879830    0.340920
C     0.465613    -3.023593    0.472260
C     0.658837    -4.449926    0.641611
H     1.428643    -4.805868    -0.055356
H     0.972653    -4.665450    1.670970
H     -0.281794    -4.977130    0.434434
N     -1.880265    -0.291139    0.338135
C     -3.006580    -0.465631    0.561076
C     -4.411139    -0.680926    0.840368
H     -4.846282    -1.331494    0.069843
H     -4.527910    -1.151731    1.824558
H     -4.941628    0.280442    0.832711
O     0.207341    0.272241    2.001790
H     0.339210    1.185307    2.323565
H     0.817362    -0.308229    2.496867
C     -0.284929    -0.242653    -1.861298
O     -0.456692    -0.380090    -2.963293
