26

Fe     -0.062692    0.000714    0.026929
C     -0.013899    -0.001907    -2.453841
O     0.025531    0.003411    -3.579365
O     -0.411871    2.163718    -0.027710
H     0.212023    2.786324    -0.447481
H     -1.301245    2.522805    -0.210556
O     2.031285    0.266220    -0.136793
H     2.533297    0.234123    -0.974787
H     2.643536    0.650780    0.518906
O     0.303114    -2.166052    -0.017007
H     1.147723    -2.534773    -0.338503
H     -0.378977    -2.824992    -0.247879
O     -2.125882    -0.298099    -0.206228
H     -2.791881    -0.543536    0.463746
H     -2.585774    -0.327443    -1.067768
C     0.081782    -0.005071    5.216230
C     -0.219903    1.154370    4.501009
C     -0.226947    1.123795    3.052354
N     0.051415    0.020261    2.330491
C     0.342211    -1.096730    3.031003
C     0.376991    -1.149211    4.477180
H     0.092837    -0.013069    6.303502
H     -0.444567    2.095469    5.000329
H     -0.465587    2.023858    2.490745
H     0.548961    -1.990374    2.447588
H     0.636493    -2.091999    4.955647
