15

Fe     0.049720    0.018519    -0.046247
C     0.342299    1.975298    -0.357501
O     0.507078    3.070067    -0.535427
C     2.040644    -0.308817    -0.297377
O     3.136755    -0.497852    -0.435514
C     -0.229480    -1.937069    0.299214
O     -0.383868    -3.029802    0.498328
C     -1.911894    0.369750    0.339898
O     -2.996853    0.556450    0.550763
C     0.404390    0.248137    1.966344
O     0.602361    0.377867    3.061901
N     -0.337136    -0.179947    -2.034922
H     -1.093177    0.438635    -2.372701
H     0.483169    0.046301    -2.622110
H     -0.613085    -1.139539    -2.296142
