67
03/24/2023 16:57, XYZ structure generated by mol3D Class, molSimplify
Fe     0.009050    -0.000142    0.037238
P     -0.338882    2.319569    -0.381806
C     -0.711232    5.305424    -1.124270
C     0.516981    4.904772    -0.584768
C     0.817501    3.594720    -0.215867
C     -1.741568    3.063685    -1.068258
C     -1.779522    4.428621    -1.349996
H     -0.842744    6.352309    -1.381180
H     1.289435    5.657998    -0.448653
H     1.799493    3.368841    0.186491
H     -2.620248    2.457576    -1.265533
H     -2.697380    4.833566    -1.769885
P     2.320973    0.380175    0.419615
C     5.332199    0.945049    0.875189
C     4.421444    1.389668    1.841630
C     3.042317    1.201317    1.759772
C     3.637938    -0.059222    -0.611170
C     4.955475    0.256690    -0.284865
H     6.387861    1.143423    1.034742
H     4.810094    1.912179    2.712596
H     2.408236    1.569890    2.560681
H     3.430447    -0.586473    -1.536649
H     5.735640    -0.048328    -0.978357
P     0.368456    -2.311354    0.440520
C     0.788193    -5.323138    1.033415
C     1.762357    -4.419143    1.474743
C     1.696828    -3.040876    1.273618
C     -0.674507    -3.620976    0.008048
C     -0.364134    -4.939432    0.336227
H     0.935093    -6.378723    1.241694
H     2.626316    -4.812622    2.005212
H     2.503784    -2.413191    1.639761
H     -1.595239    -3.408120    -0.525306
H     -1.064758    -5.714348    0.034148
P     -2.307572    -0.379288    -0.329411
C     -5.323296    -0.952376    -0.751263
C     -4.932403    -0.286873    0.417126
C     -3.611622    0.029943    0.730005
C     -3.046256    -1.171770    -1.677939
C     -4.425112    -1.367916    -1.742157
H     -6.380022    -1.154600    -0.898407
H     -5.703192    -0.001453    1.129187
H     -3.393733    0.539925    1.662852
H     -2.424246    -1.513078    -2.500117
H     -4.824495    -1.871725    -2.619285
P     -0.399802    0.387006    2.348409
C     -1.094144    0.837214    5.334282
C     -0.557899    -0.400156    4.957611
C     -0.207721    -0.734432    3.650706
C     -1.075700    1.808439    3.065980
C     -1.336241    1.881833    4.433689
H     -1.334934    0.995492    6.381288
H     -0.408552    -1.152114    5.728847
H     0.193517    -1.721444    3.445229
H     -1.286418    2.669449    2.439069
H     -1.751909    2.809165    4.821016
P     0.401661    -0.380048    -2.271658
C     0.988153    -0.819589    -5.282053
C     0.323848    0.352706    -4.900594
C     0.001414    0.673478    -3.583258
C     1.193723    -1.734846    -2.999161
C     1.396498    -1.806892    -4.376763
H     1.195044    -0.972885    -6.337000
H     0.043709    1.061087    -5.676677
H     -0.508212    1.608204    -3.372833
H     1.529914    -2.554505    -2.371096
H     1.899968    -2.687416    -4.769038
