19

Fe     -0.001772    0.000490    0.005993
P     -0.331733    2.295746    -0.411370
H     -1.610715    2.677091    -0.861590
H     -0.128220    3.200143    0.649010
H     0.456189    2.870006    -1.427626
P     2.296059    0.398121    -0.326255
H     2.815674    1.575993    0.244294
H     3.188468    -0.543725    0.222313
H     2.769771    0.490010    -1.649448
P     0.328547    -2.294839    0.424645
H     1.607515    -2.674835    0.876038
H     -0.459473    -2.868722    1.441051
H     0.126295    -3.200652    -0.634794
P     -2.299304    -0.397520    0.338970
H     -2.819214    -1.574471    -0.233195
H     -2.771451    -0.491959    1.662536
H     -3.192652    0.545108    -0.206760
Cl     0.368179    0.339905    2.208951
Cl     -0.370893    -0.338669    -2.196885
