37
03/24/2023 16:57, XYZ structure generated by mol3D Class, molSimplify
Fe     0.029359    0.004774    0.061560
N     -0.133503    2.067603    -0.324261
H     -1.089479    2.300463    -0.606022
H     0.421640    2.209993    -1.172806
P     0.500247    3.318190    0.898227
H     0.441318    4.453631    0.054108
H     -0.749556    3.545542    1.524260
N     2.066310    0.274524    0.391137
H     2.351552    -0.231741    1.235143
H     2.133275    1.265942    0.656009
P     3.329365    0.032385    -0.966249
H     4.440447    0.529634    -0.241212
H     3.577138    -1.330979    -0.664738
N     0.282413    -2.070818    0.313072
H     0.024035    -2.312761    1.279169
H     1.297390    -2.205981    0.288412
P     -0.398769    -3.329412    -0.879904
H     0.186503    -4.471713    -0.280688
H     -1.646647    -3.468354    -0.220496
N     -2.008955    -0.243360    -0.131494
H     -2.191165    -1.217622    0.124495
H     -2.217225    -0.189343    -1.140637
P     -3.231582    0.785931    0.829964
H     -3.392275    1.765702    -0.182231
H     -4.383873    0.043126    0.474103
N     -0.215040    0.314557    2.103274
H     -1.207613    0.584544    2.178699
H     0.302703    1.157386    2.376179
P     0.036338    -1.031557    3.370186
H     1.380503    -0.680647    3.656620
H     -0.516778    -0.322636    4.465093
N     0.241556    -0.268760    -1.985161
H     0.220206    -1.292437    -2.094992
H     1.199448    0.003762    -2.249559
P     -0.998021    0.383388    -3.212470
H     -0.283445    1.569768    -3.512216
H     -0.524196    -0.347486    -4.328819
