21

Fe     -0.001244    0.001559    -0.056282
C     -0.024964    0.001221    2.074975
O     -0.006828    -0.002631    3.197566
O     0.010620    1.920718    -0.005713
H     0.693761    2.493059    -0.417607
H     -0.710549    2.486095    0.348143
O     1.960238    -0.019098    -0.065321
H     2.545306    0.022865    -0.850911
H     2.532975    -0.012448    0.732888
O     0.008866    -1.916274    0.000443
H     0.703365    -2.486133    -0.395798
H     -0.724059    -2.480363    0.331499
O     -1.963431    -0.011357    -0.022551
H     -2.561360    0.017436    0.755516
H     -2.526167    -0.009916    -0.826078
C     0.035871    0.000375    -2.025632
N     0.026101    -0.000247    -3.180688
C     0.004315    -0.000845    -4.626019
H     -0.610872    -0.843645    -4.957727
H     1.032695    -0.109325    -4.984645
H     -0.424638    0.948956    -4.961703
