67

Fe     -0.016158    -0.003724    -0.004190
C     -0.104554    5.043062    0.113013
C     1.110124    4.354604    0.051413
C     1.098018    2.965670    0.022906
N     -0.049129    2.240003    0.046198
C     -1.222327    2.917691    0.110902
C     -1.289382    4.304750    0.146931
H     -0.126474    6.128566    0.134275
H     2.058191    4.882640    0.024881
H     2.016953    2.397567    -0.012025
H     -2.120468    2.319059    0.131023
H     -2.258033    4.791585    0.197177
C     5.031873    -0.077857    -0.012470
C     4.313200    -0.377545    1.146831
C     2.925174    -0.337153    1.111750
N     2.226980    -0.023604    -0.008614
C     2.933371    0.256852    -1.132980
C     4.322170    0.244874    -1.171391
H     6.117737    -0.097659    -0.013568
H     4.816441    -0.640680    2.071253
H     2.341122    -0.573430    1.990072
H     2.354646    0.500248    -2.013347
H     4.832990    0.482003    -2.098769
C     -0.047562    -5.062813    -0.080758
C     -1.240775    -4.339655    -0.019859
C     -1.190920    -2.951125    -0.003554
N     -0.026227    -2.255507    -0.046107
C     1.127011    -2.967804    -0.115861
C     1.155929    -4.356293    -0.131009
H     -0.054538    -6.148829    -0.089994
H     -2.202364    -4.841016    0.016677
H     -2.094400    -2.361395    0.048264
H     2.040204    -2.393426    -0.166852
H     2.110534    -4.869200    -0.180700
C     -5.053962    0.003866    0.006751
C     -4.343685    -0.063203    -1.194184
C     -2.954686    -0.072047    -1.158368
N     -2.250971    -0.018167    0.000585
C     -2.949373    0.043532    1.163144
C     -4.337725    0.056152    1.205288
H     -6.139846    0.014557    0.008903
H     -4.855007    -0.107878    -2.150371
H     -2.372224    -0.124232    -2.067369
H     -2.361101    0.088162    2.068694
H     -4.844185    0.107003    2.163696
C     0.159825    -0.026193    5.033826
C     0.312385    1.163760    4.319810
C     0.244383    1.133354    2.932713
N     0.030301    -0.007823    2.231749
C     -0.119814    -1.160298    2.933981
C     -0.060908    -1.207887    4.321216
H     0.211511    -0.033560    6.118631
H     0.483217    2.108561    4.825357
H     0.365548    2.036790    2.353898
H     -0.290241    -2.053999    2.349568
H     -0.185288    -2.158812    4.829048
C     0.059467    0.141045    -5.044093
C     0.167617    -1.076060    -4.367178
C     0.142475    -1.082027    -2.977637
N     0.007570    0.049393    -2.241083
C     -0.098409    1.227287    -2.907937
C     -0.074125    1.311791    -4.293912
H     0.079602    0.177133    -6.129349
H     0.273108    -2.013009    -4.904740
H     0.227765    -2.005070    -2.421751
H     -0.204896    2.113509    -2.299511
H     -0.156406    2.282821    -4.771120
