73
03/24/2023 16:57, XYZ structure generated by mol3D Class, molSimplify
Fe     0.017022    -0.023869    0.018930
O     -0.223805    1.880574    0.243547
C     -0.969679    2.558754    1.043827
N     -2.207337    2.996645    0.754935
C     -2.660419    3.999060    1.739041
C     -1.664014    3.768588    2.908500
N     -0.592419    3.006235    2.245614
H     -3.696465    3.823525    2.032506
H     -2.575440    5.007381    1.320591
H     -2.109413    3.177680    3.715833
H     -1.283773    4.704108    3.322546
H     -2.573680    2.941102    -0.185013
H     0.275059    2.703090    2.674404
O     1.918341    0.363808    -0.152877
C     2.792755    -0.112359    -0.959161
N     4.064104    0.327464    -0.993718
C     4.807027    -0.289350    -2.108232
C     3.915739    -1.512823    -2.426680
N     2.616286    -1.094702    -1.862976
H     5.815600    -0.570663    -1.802138
H     4.868927    0.403325    -2.954498
H     4.277596    -2.417470    -1.925005
H     3.839108    -1.707272    -3.497558
H     4.323940    1.219120    -0.593548
H     1.831148    -1.724616    -1.741316
O     0.300500    -1.897780    -0.372666
C     -0.137120    -2.944129    0.233293
N     -0.685359    -3.015579    1.452636
C     -1.169775    -4.375473    1.747865
C     -0.452362    -5.211425    0.657093
N     -0.088415    -4.169538    -0.319880
H     -2.259733    -4.423044    1.650343
H     -0.891377    -4.683932    2.757053
H     -1.104675    -5.960942    0.206477
H     0.445911    -5.705169    1.042833
H     -0.889306    -2.179474    1.983188
H     0.437857    -4.357914    -1.161503
O     -1.850768    -0.282515    0.435757
C     -2.813777    -0.715665    -0.284068
N     -4.100374    -0.623774    0.099637
C     -4.979368    -1.379342    -0.810580
C     -4.074184    -1.522177    -2.058304
N     -2.729210    -1.335814    -1.478029
H     -5.898809    -0.829749    -1.017652
H     -5.235579    -2.352553    -0.377718
H     -4.283183    -0.744422    -2.801658
H     -4.167718    -2.500461    -2.532193
H     -4.345683    -0.411058    1.057658
H     -1.897268    -1.184149    -2.036282
O     0.230222    -0.360175    1.945431
C     1.087957    0.051407    2.790481
N     1.943722    1.105674    2.637290
C     2.936684    1.086953    3.739476
C     2.182725    0.298356    4.832134
N     1.234945    -0.477706    4.013748
H     3.196529    2.098494    4.053854
H     3.846514    0.564675    3.423399
H     1.641322    0.957901    5.519431
H     2.836473    -0.357849    5.408574
H     2.240017    1.291623    1.682979
H     0.560485    -1.122060    4.404295
O     -0.279242    0.137228    -1.898731
C     0.045306    1.074640    -2.710007
N     -0.205063    1.000995    -4.031382
C     0.418519    2.126387    -4.752180
C     0.670447    3.125889    -3.598448
N     0.656206    2.238122    -2.418629
H     -0.251073    2.524261    -5.516030
H     1.351494    1.804427    -5.227220
H     -0.129499    3.871331    -3.526774
H     1.626637    3.642843    -3.692717
H     -0.405761    0.115466    -4.476861
H     0.628023    2.580169    -1.464358
