20

Fe     -0.001606    0.014062    -0.047569
O     0.244083    1.944583    -0.276600
H     0.659343    2.431707    -1.020519
H     0.244525    2.527872    0.513268
O     1.898911    -0.249504    0.217752
H     2.361230    -1.114689    0.258271
H     2.535105    0.456606    0.465339
O     -0.384187    -1.899457    0.204611
H     -0.074044    -2.676340    -0.309772
H     -0.612064    -2.225480    1.102327
O     -1.898748    0.292840    -0.265415
H     -2.302346    1.183369    -0.361739
H     -2.550575    -0.396906    -0.519074
O     -0.245114    0.427373    1.897190
H     0.406160    0.265964    2.612882
H     -1.135700    0.475558    2.305384
N     0.188122    -0.320814    -2.005260
H     -0.220896    0.441461    -2.563912
H     1.174627    -0.400339    -2.288640
H     -0.286504    -1.175259    -2.326944
