17

Fe     -0.177686    -0.199934    -0.115693
S     -0.261558    2.480710    -0.532690
H     0.458538    2.910187    0.526165
H     0.753522    2.612248    -1.413866
S     2.476420    0.116683    0.309505
H     2.647530    -0.667176    1.395514
H     2.980690    -0.782696    -0.562540
S     0.117409    -2.855312    0.291367
H     -0.853859    -3.141803    1.184435
H     -0.528764    -3.387506    -0.767672
S     -2.834390    -0.003618    -0.557392
H     -3.340917    -0.715788    0.471901
H     -3.041601    -0.967972    -1.479679
N     -0.665991    0.220740    2.983357
C     -0.493365    0.069068    1.834471
N     0.310096    -0.702225    -3.201799
C     0.131322    -0.505050    -2.060975
