13

Fe     -0.000226    -0.000237    0.004098
C     0.025995    1.954668    -0.018565
O     0.040107    3.078110    -0.054922
C     1.954742    0.026300    -0.017888
O     3.078193    0.040605    -0.053817
C     -0.026492    -1.955046    -0.019544
O     -0.040681    -3.078474    -0.056297
C     -1.955097    -0.026850    -0.018780
O     -3.078536    -0.041249    -0.055060
C     -0.000502    -0.000549    2.032118
O     -0.000570    -0.000639    3.155868
C     0.001043    0.001147    -1.835163
N     0.002023    0.002213    -3.031400
