13

Fe     0.000475    0.000365    0.000104
Cl     0.388494    2.291076    -0.361539
Cl     2.298988    -0.343033    0.359080
Cl     -0.388276    -2.289413    0.362374
Cl     -2.298667    0.343848    -0.359309
N     -0.197459    0.301906    1.952581
H     -1.196410    0.365125    2.144362
H     0.220868    -0.489014    2.436977
H     0.273462    1.173470    2.188604
N     0.197887    -0.299627    -1.952558
H     -0.221011    0.492072    -2.435200
H     1.196666    -0.361941    -2.145474
H     -0.273132    -1.170743    -2.189996
