37

Fe     0.000198    0.000190    -0.000102
C     -0.000262    1.973240    -0.000306
N     -0.000792    3.129582    -0.000357
C     -0.001635    4.566962    0.000531
H     0.838634    4.914617    -0.607248
H     0.109571    4.916099    1.030466
H     -0.945789    4.918313    -0.423346
C     1.964585    0.000404    0.034539
N     3.121003    0.000492    0.026438
C     4.558875    -0.000328    0.008368
H     4.899109    -0.837622    -0.606729
H     4.924386    -0.107677    1.032600
H     4.902664    0.944645    -0.420757
C     0.000579    -1.972999    -0.000367
N     0.000150    -3.129381    -0.000476
C     -0.001975    -4.566769    -0.000547
H     -0.839410    -4.917304    -0.608942
H     -0.106326    -4.915370    1.030503
H     0.945498    -4.915831    -0.420739
C     -1.964360    -0.000038    -0.034364
N     -3.120756    -0.000532    -0.025988
C     -4.558676    -0.001069    -0.007038
H     -4.921054    -0.607585    -0.840983
H     -4.908900    1.029575    -0.109191
H     -4.895731    -0.421410    0.943940
C     0.035479    0.000608    1.964458
N     0.027095    0.000532    3.120856
C     0.006341    -0.000377    4.558766
H     0.609988    -0.838276    4.917299
H     -1.028578    -0.107464    4.893295
H     0.423817    0.945023    4.915304
C     -0.035215    0.000249    -1.964495
N     -0.027020    0.000457    -3.120906
C     -0.006333    -0.000323    -4.558771
H     -0.609922    -0.838251    -4.917240
H     1.028604    -0.107498    -4.893224
H     -0.423841    0.945118    -4.915249
