21

Fe     -0.000340    0.000170    -0.000194
N     -0.163492    2.000496    0.371802
H     -1.126499    2.269448    0.580298
H     0.390796    2.284417    1.182139
H     0.114915    2.555540    -0.440017
N     2.012900    0.252170    -0.213995
H     2.289115    1.225404    -0.077978
H     2.543430    -0.294220    0.467719
H     2.321895    0.001879    -1.155759
N     0.164404    -2.001284    -0.365727
H     1.131878    -2.273855    -0.546825
H     -0.137725    -2.554485    0.438783
H     -0.369158    -2.284298    -1.190256
N     -2.013668    -0.251359    0.208556
H     -2.295147    -1.217158    0.035448
H     -2.319575    -0.034023    1.159563
H     -2.543267    0.321698    -0.451615
C     0.264817    -0.329605    1.905186
N     0.427202    -0.521773    3.046357
C     -0.265099    0.329680    -1.905521
N     -0.427247    0.521116    -3.046846
