24

Fe     -0.012592    -0.043543    0.010034
P     -0.458969    2.604382    -0.372586
H     -0.405852    3.445567    0.757174
H     0.429334    3.248752    -1.256785
H     -1.711992    2.937951    -0.924535
P     2.654902    0.249143    -0.424701
H     3.135882    1.566997    -0.560126
H     3.489353    -0.266725    0.586966
H     3.173418    -0.377250    -1.576586
P     0.390120    -2.724517    0.310299
H     1.729534    -3.161611    0.344882
H     -0.139480    -3.311934    1.476672
H     -0.158640    -3.524236    -0.712196
P     -2.656609    -0.523642    0.442092
H     -3.311898    -1.315918    -0.522829
H     -2.959188    -1.208622    1.635871
H     -3.501166    0.601662    0.525799
P     0.373937    0.413350    2.650600
H     1.380531    1.346232    2.971338
H     -0.736188    0.918115    3.357167
H     0.741795    -0.704206    3.426203
S     -0.392126    -0.543626    -2.622626
H     -1.511181    0.118985    -2.997041
H     0.444620    0.266332    -3.311971
