23

Fe     -0.029349    0.018894    0.113037
P     -0.412298    2.708677    0.450100
H     -1.727533    3.133342    0.724744
H     0.324465    3.292186    1.500175
H     -0.055198    3.505319    -0.656404
P     2.621372    0.462880    -0.400808
H     3.097406    1.772051    -0.187649
H     3.518151    -0.316390    0.357060
H     3.026579    0.200024    -1.725002
P     0.344544    -2.623933    -0.474344
H     1.644052    -3.131314    -0.274519
H     -0.451241    -3.524769    0.261042
H     0.072448    -2.988930    -1.808316
P     -2.729654    -0.389305    0.305694
H     -3.187787    -1.709484    0.125310
H     -3.304571    -0.030533    1.541288
H     -3.509573    0.335618    -0.617792
P     0.366716    -0.354619    2.728722
H     1.593001    0.124629    3.230265
H     -0.579225    0.262890    3.570726
H     0.349200    -1.694050    3.165526
C     -0.400095    0.389901    -2.193277
O     -0.581783    0.568558    -3.289548
