9

Fe     -0.000000    0.000006    0.000002
Cl     0.000156    2.329017    -0.000291
Cl     2.329011    -0.000084    0.000005
Cl     -0.000149    -2.329006    0.000274
Cl     -2.329012    0.000103    0.000002
C     0.000014    0.000061    1.886418
O     0.000024    0.000080    3.024020
C     -0.000016    -0.000069    -1.886414
O     -0.000027    -0.000108    -3.024016
