33

Fe     0.002410    -0.002277    0.034134
C     0.361843    2.133345    0.347430
N     0.552764    3.264939    0.511027
C     0.788396    4.667669    0.712940
H     1.464370    5.025226    -0.068796
H     1.241501    4.808489    1.698248
H     -0.168111    5.194739    0.657310
C     2.138373    -0.320450    -0.314412
N     3.269405    -0.492764    -0.499835
C     4.670977    -0.707010    -0.731128
H     4.784969    -1.459770    -1.516100
H     5.129987    -1.056678    0.197825
H     5.122760    0.238343    -1.044226
C     -0.347234    -2.137993    -0.280902
N     -0.530187    -3.269982    -0.449195
C     -0.757556    -4.672895    -0.658236
H     -1.757230    -4.806325    -1.080998
H     -0.682278    -5.187116    0.303969
H     0.000116    -5.051335    -1.349988
C     -2.137601    0.295119    0.380695
N     -3.272328    0.445694    0.563203
C     -4.678659    0.631673    0.790126
H     -4.831259    1.604817    1.265035
H     -5.036668    -0.168985    1.443343
H     -5.196453    0.594779    -0.172399
P     0.371684    -0.398763    2.722910
H     1.674979    -0.164168    3.202719
H     -0.410683    0.407365    3.572509
H     0.102239    -1.694605    3.204537
P     -0.395998    0.487880    -2.634518
H     0.759788    0.772180    -3.387571
H     -0.990301    -0.552513    -3.374907
H     -1.227154    1.584463    -2.935369
