13

Fe     0.002839    -0.004874    -0.000417
F     -1.293203    1.292947    0.013624
F     1.299029    1.294235    -0.014095
F     1.297098    -1.301059    -0.014153
F     -1.293301    -1.302404    0.013624
N     0.318317    0.011829    1.958597
H     0.872208    -0.835782    2.058797
H     -0.498276    0.048522    2.558339
H     0.902442    0.845433    1.999792
N     -0.319469    -0.010705    -1.959373
H     -0.891355    -0.851339    -2.016178
H     0.491673    -0.017571    -2.567464
H     -0.887985    0.830755    -2.031105
