27

Fe     -0.066295    -0.074906    0.094589
P     0.274821    2.596511    -0.369481
H     -0.426263    3.416488    0.536590
H     -0.101873    3.143801    -1.612289
H     1.593507    3.072439    -0.227804
P     2.591434    -0.576996    -0.280828
H     3.439100    0.545475    -0.365771
H     2.984471    -1.327731    -1.406723
H     3.176346    -1.303461    0.775223
P     -0.468926    -2.748632    0.486607
H     -1.658177    -3.311751    -0.018330
H     -0.518862    -3.117344    1.845277
H     0.506114    -3.629262    -0.023521
P     -2.753655    0.294384    0.446377
H     -3.644552    -0.271104    -0.487455
H     -3.197208    1.630884    0.501720
H     -3.236303    -0.222036    1.665263
N     0.259219    0.271040    2.110408
C     0.447017    0.465947    3.245357
C     0.679041    0.705911    4.654491
H     1.330663    -0.077361    5.064093
H     1.161583    1.682532    4.792908
H     -0.275954    0.697567    5.196494
P     -0.458126    -0.412391    -2.541003
H     0.541050    0.117295    -3.381898
H     -1.623033    0.170424    -3.078519
H     -0.555126    -1.737761    -3.010298
