19

Fe     -0.075884    -0.107558    -0.012024
S     0.265684    2.381192    -0.236445
H     -0.595917    2.795486    -1.197003
H     1.374478    2.533365    -1.001588
S     2.396644    -0.510550    0.259966
H     2.518337    -1.425142    1.252162
H     2.864883    0.525768    0.998592
S     -0.332461    -2.580942    0.407297
H     -0.773227    -3.042768    -0.787831
H     -1.529532    -2.693064    1.032238
S     -2.502404    0.355998    -0.460128
H     -2.917120    -0.726400    -1.162036
H     -3.090872    -0.017194    0.702032
O     -0.441014    0.148188    1.914240
H     -0.670790    1.031219    2.275222
H     -0.000967    -0.339644    2.642058
O     0.129706    -0.518919    -1.936758
H     0.936876    -0.960005    -2.279737
H     -0.190150    0.059591    -2.660950
