18

Fe     -0.066186    -0.035835    0.225219
S     0.280364    2.352901    0.526317
H     -0.928001    2.887721    0.818568
H     0.300960    2.799340    -0.750269
S     2.324089    -0.466954    0.536143
H     2.772978    -0.396211    -0.738276
H     2.847629    0.728591    0.896596
S     -0.394084    -2.432763    -0.179616
H     0.537568    -3.077564    0.560939
H     0.259107    -2.587776    -1.353882
S     -2.436613    0.383816    -0.126809
H     -3.007638    -0.843195    -0.136784
H     -2.449354    0.527660    -1.471984
S     -0.564230    -0.462867    2.629702
H     0.619051    -0.665809    3.251113
H     -0.803755    0.727342    3.223407
C     0.262555    0.216350    -1.606567
N     0.445420    0.347406    -2.753939
