43

Fe     -0.039777    0.004128    0.048363
N     0.364093    2.201681    0.219363
H     0.750125    2.381414    1.151999
H     -0.561304    2.642961    0.245188
C     1.195112    2.971776    -0.773766
H     2.213685    2.577617    -0.806745
H     0.739953    2.907992    -1.763160
H     1.247814    4.025808    -0.485215
N     2.166407    -0.313298    0.349416
H     2.296978    -0.438555    1.358503
H     2.589066    0.600354    0.161840
C     2.998557    -1.351122    -0.355563
H     2.698275    -2.352268    -0.041367
H     2.885932    -1.251401    -1.436631
H     4.055429    -1.220631    -0.103882
N     -0.146625    -2.212776    0.279118
H     0.382379    -2.447746    1.124236
H     0.414838    -2.594870    -0.487159
C     -1.444877    -2.967368    0.326688
H     -2.046491    -2.624266    1.171367
H     -1.991655    -2.823137    -0.606173
H     -1.257464    -4.037966    0.454188
N     -2.234040    0.125556    -0.411703
H     -2.764833    -0.348522    0.324519
H     -2.392063    -0.455027    -1.240316
C     -2.878293    1.462856    -0.653818
H     -2.857339    2.054872    0.264202
H     -2.352518    1.989272    -1.453408
H     -3.923560    1.337643    -0.952523
N     -0.632547    0.151765    2.224950
H     -1.329537    -0.574218    2.416297
H     -1.144364    1.028340    2.366448
C     0.417686    0.061682    3.299333
H     0.907096    -0.914218    3.257486
H     1.155388    0.857467    3.170498
H     -0.035023    0.172390    4.289453
N     0.238237    0.059236    -2.152512
H     1.191382    0.394887    -2.319881
H     -0.359198    0.804882    -2.522022
C     0.032540    -1.167660    -3.000484
H     0.779711    -1.919755    -2.741462
H     -0.969170    -1.572164    -2.841550
H     0.144137    -0.920398    -4.060385
