29

Fe     0.001979    0.002427    0.001438
C     0.002210    3.211508    0.001667
N     0.002366    2.045121    0.001389
C     0.001275    4.656154    0.001318
H     -0.279155    5.026420    -0.994813
H     1.001344    5.031544    0.256066
H     -0.723324    5.028621    0.738407
C     3.211069    -0.002292    0.000262
N     2.044688    0.000660    0.001112
C     4.655639    -0.007980    -0.000822
H     5.035499    1.022351    -0.001540
H     5.024347    -0.528940    -0.895448
H     5.025713    -0.528244    0.893644
C     -0.002221    -3.206849    0.000781
N     0.000359    -2.040472    0.001268
C     -0.007302    -4.651426    0.000129
H     1.023187    -5.030820    0.006052
H     -0.522510    -5.020624    -0.897626
H     -0.533114    -5.021455    0.891348
C     -3.207287    0.002082    0.000425
N     -2.040907    0.002666    0.000960
C     -4.651937    0.000557    -0.001176
H     -5.024832    -0.744590    0.714863
H     -5.021022    -0.252121    -1.005174
H     -5.028047    0.993031    0.280752
C     0.001934    0.003130    2.347982
O     0.001965    0.003712    3.472715
C     0.002757    0.002489    -2.345269
O     0.003391    0.002600    -3.470012
