22

Fe     0.000043    -0.000017    -0.098100
C     0.013887    1.943571    -0.195038
O     0.020213    3.065243    -0.299222
C     1.949553    -0.004920    -0.079099
O     3.074991    -0.004129    -0.061941
C     -0.013814    -1.943648    -0.194644
O     -0.020146    -3.065307    -0.298632
C     -1.949454    0.004856    -0.079018
O     -3.074891    0.004008    -0.061895
C     0.000005    -0.000185    -2.030828
O     0.000009    -0.000221    -3.155740
C     -0.000230    0.000490    5.077925
C     -0.105960    1.178873    4.342123
C     -0.107643    1.135196    2.888926
N     0.000035    0.000181    2.158668
C     0.107638    -1.134671    2.889198
C     0.105679    -1.178045    4.342398
H     -0.000331    0.000605    6.166674
H     -0.191480    2.154842    4.819279
H     -0.203275    2.076895    2.358221
H     0.203442    -2.076467    2.358703
H     0.191154    -2.153906    4.819783
