52

Fe     0.027311    -0.001055    0.057027
C     0.040006    0.018350    2.015647
N     0.012554    0.040220    3.174285
C     -0.036243    0.066437    4.612467
H     0.586172    -0.743392    5.000992
H     -1.072845    -0.075089    4.929537
H     0.339445    1.031733    4.962061
O     0.040185    2.132010    0.016931
C     1.065490    2.958171    0.495305
C     0.764154    4.257652    0.231240
C     -0.500848    4.275221    -0.435856
C     -0.915504    2.984973    -0.557474
H     1.888233    2.459017    0.981483
H     1.375756    5.113219    0.487624
H     -1.779515    2.508975    -0.990220
H     -1.040237    5.147524    -0.782426
O     2.177744    -0.059392    0.002053
C     2.977195    -0.824814    0.864113
C     4.277530    -0.738784    0.478785
C     4.324463    0.104076    -0.676793
C     3.050584    0.493113    -0.945717
H     2.464941    -1.319143    1.673449
H     5.115761    -1.219485    0.966774
H     2.599351    1.103079    -1.709347
H     5.205337    0.390378    -1.237043
O     0.045708    -2.118421    0.023554
C     -0.820747    -3.000333    0.682129
C     -0.428979    -4.280708    0.449342
C     0.735231    -4.226189    -0.381456
C     1.004619    -2.914929    -0.620700
H     -1.617196    -2.544953    1.247707
H     -0.915163    -5.170875    0.827797
H     1.759314    -2.387833    -1.179872
H     1.307804    -5.066407    -0.752702
O     -2.162386    0.031146    0.107787
C     -2.930640    0.874911    0.921020
C     -4.253379    0.668559    0.679895
C     -4.347637    -0.351731    -0.316261
C     -3.078061    -0.718029    -0.641324
H     -2.382727    1.516552    1.591666
H     -5.074519    1.183285    1.162172
H     -2.662865    -1.441148    -1.321957
H     -5.254236    -0.768371    -0.736367
O     -0.054840    0.015210    -2.078235
C     -0.507468    -1.010743    -2.917659
C     -0.527547    -0.579939    -4.207485
C     -0.076863    0.775453    -4.207869
C     0.202809    1.107792    -2.919619
H     -0.718551    -1.953093    -2.441198
H     -0.826448    -1.166924    -5.066417
H     0.564927    1.999974    -2.439168
H     0.031825    1.424899    -5.066752
