25

Fe     0.045640    -0.026593    0.011167
P     -0.249739    2.372629    0.314022
H     -1.560811    2.864123    0.157366
H     0.471563    3.193987    -0.574703
H     0.117413    2.902958    1.565982
P     2.428685    0.425691    -0.230351
H     2.987773    1.299854    0.722474
H     2.836717    1.012932    -1.443497
H     3.283922    -0.689625    -0.136464
P     0.389366    -2.409129    -0.395643
H     1.309794    -2.704484    -1.421152
H     -0.735886    -3.157669    -0.790855
H     0.896688    -3.174812    0.672266
P     -2.337108    -0.420126    0.366257
H     -3.197965    -0.156700    -0.716842
H     -2.915134    0.356708    1.390074
H     -2.715262    -1.723802    0.740186
P     0.461812    -0.436486    2.378328
H     -0.367581    -1.392558    2.996446
H     0.328135    0.671378    3.237517
H     1.746027    -0.910910    2.710216
P     -0.409639    0.313830    -2.360511
H     0.716467    0.384446    -3.203570
H     -1.106614    1.488923    -2.703558
H     -1.187347    -0.677377    -2.990123
