45

Fe     0.000241    0.058050    -0.097318
C     0.003458    -0.030584    1.884260
O     0.003264    -0.104291    3.010275
C     0.027167    0.164588    -2.076679
N     0.077853    0.283935    -3.227840
C     0.165301    0.450195    -4.655249
H     -0.341721    -0.386698    -5.142666
H     1.221069    0.469757    -4.938115
H     -0.314783    1.393823    -4.926607
O     -0.068344    2.320011    -0.071983
C     -1.176820    3.074862    -0.462427
C     -0.912994    4.408067    -0.303454
C     0.410596    4.515923    0.203017
C     0.895313    3.243103    0.335014
H     -2.026992    2.517290    -0.819131
H     -1.594459    5.218997    -0.528527
H     1.843394    2.836573    0.650994
H     0.948363    5.425168    0.442321
O     2.103576    -0.055821    -0.082042
C     3.000351    0.302919    0.950587
C     4.235140    -0.168223    0.662971
C     4.148680    -0.867218    -0.589575
C     2.864977    -0.790446    -1.011549
H     2.591600    0.883088    1.762991
H     5.122917    -0.029491    1.267718
H     2.336776    -1.142664    -1.881190
H     4.959172    -1.357941    -1.113456
O     0.060734    -2.277790    -0.041623
C     1.062635    -2.998211    0.611022
C     0.765746    -4.337884    0.593252
C     -0.466091    -4.481091    -0.093169
C     -0.864920    -3.222933    -0.468818
H     1.879855    -2.423607    1.018399
H     1.369299    -5.126047    1.026078
H     -1.723718    -2.848342    -1.002733
H     -1.003111    -5.399505    -0.295800
O     -2.095109    0.054599    -0.076415
C     -2.959436    -0.403367    -1.094175
C     -4.244666    -0.245183    -0.704780
C     -4.229620    0.338716    0.609175
C     -2.936315    0.510115    0.963022
H     -2.480797    -0.767187    -1.988303
H     -5.119995    -0.509796    -1.285017
H     -2.448709    0.906935    1.838485
H     -5.089541    0.596363    1.214791
