13
03/24/2023 16:57, XYZ structure generated by mol3D Class, molSimplify
Fe     -0.027263    -0.048492    -0.016749
O     0.147481    1.958133    0.611692
S     1.388344    2.786807    0.935027
S     2.863784    1.369751    0.560745
O     1.977458    0.165545    0.212516
O     0.201650    -2.023322    -0.411288
S     0.311210    -3.234085    0.522686
S     -0.160624    -2.318130    2.337082
O     -0.306405    -0.870207    1.863190
O     -2.067998    0.234929    -0.206486
S     -2.915469    0.543918    -1.441660
S     -1.422702    0.568805    -2.890295
O     -0.200812    0.327314    -1.996718
