27

Fe     -0.078237    -0.085189    0.009477
N     -0.285220    1.951527    0.234635
H     -1.266556    2.251311    0.270149
H     0.134659    2.327251    1.093124
H     0.125958    2.491168    -0.535338
N     1.943588    0.096510    0.342622
H     2.248741    1.071244    0.440951
H     2.309070    -0.390294    1.169590
H     2.491734    -0.264924    -0.447261
N     0.156856    -2.123961    -0.182328
H     0.977750    -2.500407    0.306396
H     -0.633360    -2.682251    0.162496
H     0.276687    -2.407232    -1.161776
N     -2.074193    -0.318954    -0.436052
H     -2.251935    -1.141737    -1.023325
H     -2.680736    -0.438701    0.383773
H     -2.476082    0.461686    -0.967929
N     -0.405150    -0.317322    2.037177
H     -1.234459    0.177511    2.389079
H     -0.544863    -1.293164    2.321662
H     0.360770    0.021681    2.631005
C     0.195861    0.211341    -1.953727
N     0.353774    0.381690    -3.088124
C     0.552415    0.592780    -4.503185
H     -0.022744    -0.159655    -5.050593
H     1.620029    0.493181    -4.721278
H     0.204718    1.599158    -4.755474
