30

Fe     0.000347    -0.000489    0.325356
C     -0.000590    0.000031    -2.074069
O     0.000390    0.000980    -3.199651
O     -0.001060    0.006219    2.370102
H     0.784823    0.065185    2.953423
H     -0.788563    -0.047401    2.951672
C     -0.001893    2.158090    0.062579
N     -0.001474    3.312073    -0.035641
C     0.001128    4.743954    -0.144171
H     0.836139    5.044425    -0.784247
H     0.117252    5.166735    0.858221
H     -0.948108    5.063159    -0.584901
C     2.171864    0.002286    0.168930
N     3.325117    0.000254    0.058970
C     4.753412    -0.002434    -0.085065
H     5.034758    -0.837218    -0.734108
H     5.205778    -0.121302    0.904469
H     5.059096    0.948379    -0.531735
C     0.002376    -2.158823    0.065060
N     0.001677    -3.312747    -0.033835
C     -0.001155    -4.744491    -0.143246
H     -0.836252    -5.044301    -0.783505
H     -0.117337    -5.167972    0.858857
H     0.948084    -5.063437    -0.584133
C     -2.171149    -0.004689    0.165786
N     -3.324423    -0.003587    0.056161
C     -4.752813    -0.000728    -0.087476
H     -5.013562    -0.610417    -0.958009
H     -5.086520    1.031341    -0.230521
H     -5.197340    -0.423074    0.819054
