39

Fe     -0.021469    -0.101377    0.025635
N     -0.020217    1.936280    0.286106
H     0.268192    2.181061    1.238627
H     -0.907051    2.427048    0.138991
H     0.644404    2.402246    -0.339480
N     2.018784    -0.055489    0.261420
H     2.266376    0.204674    1.221285
H     2.462638    0.641710    -0.344762
H     2.530821    -0.923640    0.078262
N     -0.026841    -2.139162    -0.235728
H     -0.701868    -2.603278    0.380080
H     0.856126    -2.633005    -0.077087
H     -0.301951    -2.381115    -1.192724
N     -2.061726    -0.145429    -0.209306
H     -2.571962    0.724124    -0.027811
H     -2.506189    -0.840173    0.399124
H     -2.310302    -0.406710    -1.168505
C     -0.600567    -0.785714    4.779544
C     -1.376728    0.155562    4.095677
C     -1.181881    0.329631    2.732276
N     -0.262832    -0.379420    2.021498
C     0.488496    -1.290209    2.698975
C     0.349313    -1.518568    4.060595
H     -0.731222    -0.944113    5.846563
H     -2.125856    0.750475    4.609228
H     -1.775432    1.057306    2.190076
H     1.223174    -1.848806    2.130110
H     0.978153    -2.258456    4.545988
C     0.557450    0.551291    -4.733198
C     -0.395452    1.287152    -4.021506
C     -0.532263    1.073418    -2.656947
N     0.222797    0.172437    -1.970362
C     1.145233    -0.539038    -2.674468
C     1.339132    -0.377850    -4.039336
H     0.687499    0.697988    -5.801762
H     -1.028735    2.018724    -4.513907
H     -1.268216    1.636416    -2.093690
H     1.742795    -1.258302    -2.125592
H     2.092040    -0.973496    -4.546039
