59

Fe     -0.001431    0.001650    -0.261011
O     0.004318    0.001658    1.995780
H     0.790372    -0.032336    2.570802
H     -0.774305    0.051300    2.579825
C     -0.194124    4.992089    -0.200410
C     -0.578518    4.284318    -1.341398
C     -0.520429    2.896068    -1.327617
N     -0.100112    2.194493    -0.246990
C     0.265726    2.889100    0.860994
C     0.231285    4.275322    0.922062
H     -0.225027    6.077450    -0.184200
H     -0.919359    4.797907    -2.234193
H     -0.815833    2.318547    -2.192821
H     0.585417    2.299385    1.709594
H     0.533730    4.781668    1.833160
C     4.913491    0.241964    0.567579
C     4.173071    -0.869378    0.978852
C     2.809674    -0.909062    0.715749
N     2.155512    0.097405    0.080716
C     2.881123    1.177892    -0.306073
C     4.249697    1.279963    -0.091171
H     5.981186    0.298270    0.758000
H     4.642773    -1.702115    1.492827
H     2.213690    -1.763582    1.009948
H     2.338299    1.975632    -0.797323
H     4.780341    2.163543    -0.430746
C     0.219419    -4.996812    -0.130803
C     -0.217792    -4.265101    0.977087
C     -0.258905    -2.880368    0.895977
N     0.109048    -2.198822    -0.219757
C     0.542047    -2.914629    -1.286381
C     0.609615    -4.303117    -1.278477
H     0.255636    -6.081790    -0.099049
H     -0.525579    -4.758080    1.893061
H     -0.587096    -2.282355    1.735237
H     0.838683    -2.349307    -2.160064
H     0.962298    -4.827555    -2.160540
C     -4.914661    -0.213521    0.593964
C     -4.176423    0.914845    0.960219
C     -2.814495    0.949402    0.690287
N     -2.159110    -0.077741    0.090975
C     -2.881980    -1.176095    -0.248058
C     -4.249076    -1.275867    -0.023193
H     -5.981992    -0.264203    0.787598
H     -4.646655    1.764049    1.445858
H     -2.220993    1.815501    0.951146
H     -2.337058    -1.990329    -0.708656
H     -4.775425    -2.176807    -0.322427
C     -0.023665    -0.026366    -5.221862
C     1.168739    0.145862    -4.513984
C     1.137613    0.146907    -3.125296
N     -0.012140    -0.015632    -2.420185
C     -1.168036    -0.182327    -3.114062
C     -1.209958    -0.191941    -4.502598
H     -0.029047    -0.030802    -6.308084
H     2.116121    0.278068    -5.026485
H     2.047175    0.277006    -2.554197
H     -2.074041    -0.304859    -2.535763
H     -2.161126    -0.325796    -5.007252
