31

Mn     0.002937    0.000958    -0.001809
C     0.414917    2.510901    -0.001811
O     0.666030    3.610352    -0.000174
C     2.537863    -0.277074    0.005867
O     3.665373    -0.302967    0.015312
C     -0.411480    -2.510999    -0.000988
O     -0.668198    -3.609109    -0.000832
C     -2.530825    0.277572    0.005486
O     -3.658318    0.300166    0.011586
C     -0.000949    0.001079    4.956853
C     -0.760001    0.933749    4.246365
C     -0.732948    0.901117    2.858797
N     -0.001649    0.000538    2.157631
C     0.729141    -0.900319    2.858779
C     0.757203    -0.932267    4.246300
H     0.000163    0.002084    6.042631
H     -1.363372    1.677150    4.756321
H     -1.312329    1.617964    2.283183
H     1.308003    -1.617262    2.282961
H     1.360859    -1.675378    4.756301
C     0.001170    0.000088    -4.959843
C     0.759760    -0.932742    -4.249074
C     0.731539    -0.900777    -2.861535
N     -0.000727    -0.000762    -2.160587
C     -0.733332    0.898684    -2.861983
C     -0.760029    0.931204    -4.249579
H     0.003594    0.001584    -6.045588
H     1.364391    -1.675299    -4.758711
H     1.311451    -1.617099    -2.285669
H     -1.313942    1.614458    -2.286235
H     -1.365224    1.672796    -4.759955
