15

Mn     0.195845    -0.085368    0.033538
C     0.464337    1.854336    0.288131
O     0.617505    2.962446    0.436436
C     1.927431    -0.350261    -0.878670
O     2.919670    -0.504278    -1.393696
C     -0.096525    -2.013329    -0.265774
O     -0.263377    -3.115667    -0.440260
C     -1.557502    0.182411    0.901306
O     -2.561801    0.336782    1.392516
C     1.072474    -0.434631    1.798462
O     1.560362    -0.628281    2.795209
P     -0.886777    0.374590    -2.157870
H     0.002817    0.771520    -3.173313
H     -1.560727    -0.719914    -2.729763
H     -1.856470    1.393176    -2.159048
