22

Mn     0.000221    0.000001    0.109629
C     0.423024    1.929685    0.060101
O     0.673241    3.030143    0.019804
C     1.919504    -0.500335    0.081740
O     3.013685    -0.778839    0.068384
C     -0.422931    -1.930165    0.059926
O     -0.673161    -3.030606    0.019173
C     -1.919491    0.500002    0.080889
O     -3.013552    0.778847    0.066899
C     0.000513    0.000035    -1.931782
O     0.000626    0.000031    -3.058904
C     -0.000008    0.000858    4.935534
C     -0.565776    1.061881    4.221026
C     -0.553497    1.027333    2.836477
N     -0.000441    -0.000139    2.127883
C     0.552970    -1.027104    2.836926
C     0.565430    -1.060685    4.221503
H     0.000037    0.001112    6.021691
H     -1.016949    1.909137    4.726840
H     -1.000268    1.837493    2.272724
H     0.999466    -1.837762    2.273583
H     1.016755    -1.907609    4.727694
