12

Mn     0.054542    0.049010    0.020001
C     0.411717    2.472304    0.484995
O     0.615730    3.581877    0.452756
C     2.477569    -0.358973    0.436018
O     3.595910    -0.506752    0.403312
C     -0.322994    -2.387265    -0.331646
O     -0.470010    -3.439631    -0.711786
C     -2.387249    0.434166    -0.284434
O     -3.430444    0.629911    -0.668028
C     -0.344594    -0.315079    2.435033
O     -0.534853    -0.486288    3.533828
F     0.334678    0.326709    -1.714712
