27

Mn     -0.067538    -0.081371    -0.055525
P     -0.505511    2.662983    0.367387
H     -1.820455    3.177585    0.364373
H     -0.047999    3.271128    1.556964
H     0.071046    3.558787    -0.559088
P     2.683848    0.304453    0.375035
H     3.208064    1.615452    0.347890
H     3.296329    -0.139292    1.567294
H     3.570150    -0.291226    -0.548659
P     0.375219    -2.831168    -0.420598
H     1.574132    -3.423093    0.033714
H     -0.535178    -3.756629    0.134891
H     0.389326    -3.319877    -1.744950
P     -2.808872    -0.481252    -0.530037
H     -3.214271    -1.631537    -1.241644
H     -3.718328    -0.570475    0.546213
H     -3.489559    0.487910    -1.298618
P     -0.467247    -0.499352    2.675228
H     0.474074    0.025989    3.586979
H     -1.641317    0.010295    3.271538
H     -0.533121    -1.816746    3.179042
C     0.252904    0.287348    -2.277338
N     0.414776    0.471761    -3.412532
C     0.614114    0.698121    -4.813782
H     0.103098    -0.087622    -5.375603
H     1.685516    0.674273    -5.027541
H     0.201651    1.675146    -5.077331
