23

Mn     0.003385    0.027212    0.099181
N     -0.297867    2.370876    0.374522
H     -1.205815    2.716885    0.687106
H     0.399761    2.909504    0.889040
H     -0.210979    2.648592    -0.605906
N     2.347886    0.287548    0.386566
H     2.663166    1.192041    0.739335
H     2.920911    -0.414109    0.857066
H     2.614591    0.272704    -0.600950
N     0.371697    -2.279651    -0.321474
H     1.220848    -2.717550    0.037821
H     -0.381171    -2.949931    -0.160856
H     0.489181    -2.217531    -1.336096
N     -2.308100    -0.274581    -0.337644
H     -2.782988    -1.135740    -0.064005
H     -2.939254    0.487067    -0.085704
H     -2.267111    -0.276900    -1.359752
N     -0.317070    -0.297508    2.383887
H     -1.180697    0.117219    2.735707
H     -0.363899    -1.289840    2.618222
H     0.438018    0.091914    2.949432
C     0.302550    0.341731    -2.018203
N     0.483019    0.390092    -3.173602
