14

Mn     0.000217    -0.000313    0.028355
C     0.079215    2.004494    0.012043
O     0.113502    3.130733    0.010828
C     2.007905    0.020240    0.019275
O     3.134631    0.023768    0.027253
C     -0.079373    -2.004348    0.012358
O     -0.113483    -3.130586    0.010629
C     -2.007867    -0.020086    0.018108
O     -3.134586    -0.023784    0.027509
C     -0.000676    0.000102    -1.991520
O     0.000338    -0.000030    -3.117110
O     0.000136    -0.000114    2.038891
H     0.557293    0.556422    2.618896
H     -0.557252    -0.556498    2.618813
