12

Mn     0.028332    0.028432    0.054063
C     -0.042225    1.981106    0.280780
O     -0.078722    3.108944    0.353213
C     1.981278    -0.033566    0.281729
O     3.109239    -0.064839    0.354630
C     0.133923    -1.898557    -0.316371
O     0.214586    -2.995101    -0.580704
C     -1.899082    0.125421    -0.317340
O     -2.995923    0.200674    -0.582027
C     -0.288335    -0.288848    2.000787
O     -0.470892    -0.471939    3.102690
F     0.307819    0.308272    -1.680937
