25

Mn     -0.003860    -0.028849    -0.047111
P     -0.382107    2.706886    0.384688
H     0.048632    3.282753    1.599445
H     -1.691387    3.234103    0.352061
H     0.232337    3.611026    -0.508687
P     2.731662    0.416637    -0.419018
H     3.297383    1.626718    0.038140
H     3.260937    0.415628    -1.727610
H     3.642152    -0.480828    0.179711
P     0.414186    -2.758646    -0.486900
H     0.460374    -3.251777    -1.808901
H     -0.514147    -3.676149    0.050646
H     1.601043    -3.347131    0.001188
P     -2.740866    -0.453673    0.349847
H     -3.266240    -1.758676    0.233281
H     -3.654792    0.218720    -0.490375
H     -3.307048    -0.107108    1.596010
P     0.423614    -0.432562    2.686873
H     0.127325    -1.695311    3.244811
H     -0.282433    0.374982    3.604627
H     1.722559    -0.267506    3.214740
P     -0.489384    0.347134    -2.773228
H     -1.060654    1.562668    -3.208120
H     -1.366393    -0.544505    -3.428268
H     0.592727    0.283972    -3.677334
