15

Mn     -0.055456    0.111289    -0.121064
O     -0.369305    2.278274    0.151568
H     -0.685782    2.384560    1.069008
H     0.517397    2.679489    0.145222
O     2.082561    0.685186    -0.424509
H     2.576367    0.227621    0.279854
H     2.375488    0.303435    -1.272037
O     0.559395    -2.059052    0.031691
H     0.378287    -2.502371    0.879482
H     0.195343    -2.595215    -0.694663
O     -2.274449    -0.041311    0.108715
H     -2.613591    -0.286531    -0.772570
H     -2.625252    -0.673567    0.756309
I     0.354236    -0.051120    2.751417
I     -0.415242    -0.460700    -2.888435
