25

Mn     -0.078992    -0.267655    -0.067094
P     0.267730    2.158831    0.216246
H     -0.468603    2.825520    1.219146
H     -0.054288    2.994452    -0.875454
H     1.547302    2.679345    0.509427
P     2.330090    -0.670387    -0.394497
H     3.210246    -0.197916    0.603648
H     2.925879    -0.047587    -1.512940
H     2.867143    -1.966015    -0.557615
P     -0.410857    -2.694131    -0.342652
H     0.192713    -3.546790    0.607213
H     0.085158    -3.296789    -1.518990
H     -1.705702    -3.257361    -0.344072
P     -2.488737    0.134045    0.248784
H     -3.082469    -0.458291    1.384595
H     -3.368699    -0.369382    -0.734628
H     -3.027910    1.432680    0.374744
N     0.121296    -0.471803    2.055637
H     -0.428213    0.183685    2.616963
H     -0.141970    -1.401062    2.392972
H     1.087765    -0.350458    2.369594
N     -0.287393    -0.064546    -2.185892
H     -1.241696    -0.258318    -2.499931
H     0.309650    -0.671401    -2.753070
H     -0.099147    0.885856    -2.513959
