22

Mn     0.027660    0.025655    0.119282
N     -0.139617    2.146947    0.295193
H     -1.083959    2.524683    0.387119
H     0.423610    2.631506    0.996194
H     0.195197    2.452902    -0.622782
N     2.153818    0.109281    0.384748
H     2.551592    0.947894    0.810814
H     2.643316    -0.681130    0.807746
H     2.429389    0.139004    -0.601312
N     0.245744    -2.069778    -0.244439
H     1.095904    -2.530847    0.083959
H     -0.523817    -2.699677    -0.010659
H     0.309233    -2.050317    -1.266931
N     -2.070501    -0.034624    -0.299098
H     -2.586472    -0.894834    -0.107071
H     -2.658178    0.727126    0.043091
H     -2.034312    0.061749    -1.317963
N     -0.307352    -0.244871    2.225380
H     -1.133358    0.230026    2.592702
H     -0.421449    -1.232822    2.455089
H     0.481360    0.079753    2.786450
Cl     0.401627    0.363918    -2.211899
