19

Mn     -0.000270    -0.000475    -0.000213
N     -0.297820    2.279954    0.298709
H     -1.285567    2.519127    0.364180
H     0.141434    2.627920    1.149535
H     0.084328    2.765114    -0.512616
N     2.288228    0.276004    0.312097
H     2.530493    1.175487    0.723228
H     2.746989    -0.438745    0.874083
H     2.659243    0.259108    -0.638324
N     0.297819    -2.280354    -0.301670
H     1.285841    -2.517509    -0.370280
H     -0.081211    -2.767275    0.510055
H     -0.143112    -2.628106    -1.151707
N     -2.288529    -0.275908    -0.313062
H     -2.531898    -1.175330    -0.723714
H     -2.659729    -0.258206    0.637292
H     -2.746686    0.439007    -0.875360
Cl     -0.414322    -0.406985    2.435095
Cl     0.414776    0.407152    -2.435826
