50

Mn     0.025173    -0.020469    -0.128248
C     0.211518    -0.030484    -1.936968
O     0.326448    -0.030150    -3.078713
O     -0.199507    -0.029164    2.037515
H     0.582228    0.000283    2.611963
H     -0.942129    0.345223    2.537074
C     -0.066115    4.888308    -0.051595
C     0.557410    4.165230    0.966233
C     0.548850    2.776915    0.908084
N     -0.037537    2.084981    -0.094495
C     -0.644867    2.794836    -1.073697
C     -0.680761    4.184319    -1.087694
H     -0.070953    5.973965    -0.038382
H     1.048905    4.663762    1.794620
H     1.032598    2.190122    1.678791
H     -1.118706    2.224990    -1.864360
H     -1.179786    4.697506    -1.903013
C     4.876985    0.073985    0.541161
C     4.079872    -0.845897    1.223687
C     2.706790    -0.840458    1.005838
N     2.099213    0.025398    0.161168
C     2.882018    0.909141    -0.500243
C     4.261272    0.965227    -0.337686
H     5.952297    0.091416    0.688186
H     4.510655    -1.566051    1.911518
H     2.066266    -1.562529    1.500522
H     2.377025    1.588559    -1.176070
H     4.837094    1.693253    -0.899207
C     0.012910    -4.914907    0.031590
C     -0.711797    -4.161903    0.955507
C     -0.665578    -2.774449    0.881654
N     0.051745    -2.113160    -0.055419
C     0.756339    -2.852933    -0.944579
C     0.763782    -4.241924    -0.932822
H     -0.006809    -5.999793    0.062633
H     -1.305021    -4.637401    1.729236
H     -1.204992    -2.161502    1.590880
H     1.334387    -2.310221    -1.683286
H     1.346445    -4.779112    -1.673210
C     -4.867458    -0.055923    -0.301123
C     -4.125391    -0.913202    -1.113381
C     -2.736764    -0.875604    -1.047545
N     -2.064797    -0.037457    -0.226699
C     -2.794018    0.793978    0.552240
C     -4.182826    0.814210    0.548378
H     -5.952560    -0.058492    -0.334050
H     -4.609711    -1.601370    -1.797570
H     -2.135666    -1.532680    -1.664849
H     -2.236237    1.487883    1.171871
H     -4.711729    1.507289    1.193924
