21

Mn     0.026931    -0.233205    0.001253
N     0.362682    2.102182    0.298558
H     -0.071308    2.489774    1.135223
H     0.023833    2.608007    -0.519164
H     1.360865    2.290836    0.376614
N     2.356623    -0.581848    -0.325590
H     2.919413    -0.240525    0.452529
H     2.707762    -0.179300    -1.193485
H     2.514823    -1.587096    -0.377629
N     -0.309516    -2.561056    -0.333367
H     -1.311100    -2.737720    -0.394643
H     0.042603    -3.101846    0.455689
H     0.099764    -2.920453    -1.194799
N     -2.303024    0.085681    0.333965
H     -2.482923    1.084959    0.419655
H     -2.646160    -0.354064    1.187078
H     -2.856340    -0.240521    -0.457487
N     0.415715    -0.802247    3.301619
C     0.296158    -0.592069    2.155643
N     -0.469151    0.382403    -3.278154
C     -0.274341    0.139583    -2.149109
