57

Mn     -0.007815    -0.002630    0.000967
C     -0.016660    -0.152909    1.970239
N     -0.010284    -0.227859    3.136805
C     0.007802    -0.317242    4.563025
H     0.664083    -1.136517    4.867565
H     -1.004303    -0.506064    4.929955
H     0.378322    0.622020    4.981536
C     0.023077    0.177745    -1.966542
N     0.056676    0.304837    -3.128223
C     0.111889    0.470793    -4.547008
H     -0.648792    -0.156207    -5.018901
H     1.100946    0.177511    -4.908284
H     -0.072311    1.518436    -4.799275
C     -0.062213    4.909044    0.351212
C     0.795951    4.149514    1.146632
C     0.781418    2.764185    1.022460
N     -0.025049    2.111586    0.157381
C     -0.851128    2.856560    -0.609883
C     -0.902825    4.243912    -0.541349
H     -0.075446    5.991999    0.424881
H     1.467637    4.617672    1.858732
H     1.436917    2.146184    1.624669
H     -1.492773    2.310740    -1.291244
H     -1.589908    4.786571    -1.181748
C     4.920855    -0.043223    0.040681
C     4.192081    -0.917097    0.847544
C     2.803081    -0.864782    0.814960
N     2.116188    -0.011041    0.024187
C     2.831422    0.827942    -0.756940
C     4.221544    0.847572    -0.773683
H     6.006500    -0.056199    0.045822
H     4.687211    -1.630045    1.498217
H     2.209718    -1.530969    1.429617
H     2.261027    1.505984    -1.380561
H     4.740761    1.549391    -1.417633
C     0.011143    -4.912389    -0.374646
C     -0.822813    -4.270902    0.541197
C     -0.798991    -2.882935    0.618353
N     -0.007840    -2.115712    -0.163599
C     0.790060    -2.746098    -1.052706
C     0.833287    -4.129629    -1.185215
H     0.020076    -5.994929    -0.455568
H     -1.481976    -4.832848    1.194351
H     -1.435190    -2.356026    1.319544
H     1.413875    -2.111084    -1.669939
H     1.500677    -4.578275    -1.913462
C     -4.928894    -0.057140    -0.028158
C     -4.200175    -0.792814    -0.962848
C     -2.811083    -0.738907    -0.928351
N     -2.125171    -0.013864    -0.017955
C     -2.839684    0.693795    0.884341
C     -4.229740    0.704144    0.908709
H     -6.014295    -0.076359    -0.029511
H     -4.694433    -1.399125    -1.714687
H     -2.217224    -1.294961    -1.644027
H     -2.269420    1.270923    1.602580
H     -4.747764    1.296632    1.655438
