19

Mn     -0.073338    0.046159    -0.071471
O     0.075139    2.246183    0.325673
H     0.028275    2.365691    1.292003
H     0.718709    2.895052    -0.003635
O     2.135196    -0.409129    -0.000349
H     2.185433    -1.382387    -0.016656
H     2.608555    -0.139980    0.806107
O     -0.091631    -2.257771    -0.215898
H     -0.312382    -2.500673    0.703333
H     -0.630805    -2.828573    -0.789032
O     -2.277733    0.202551    -0.404179
H     -2.693553    0.100670    0.472757
H     -2.682027    0.996401    -0.793605
N     -0.671783    -0.608799    3.087207
C     -0.429652    -0.289110    1.988348
P     0.403784    0.352292    -2.818060
H     1.406577    1.260275    -3.224438
H     -0.590300    0.730486    -3.747889
H     0.891519    -0.779402    -3.508574
