24

Mn     0.011851    0.004515    0.104648
C     0.211753    0.062673    2.608635
O     0.290642    0.094734    3.732566
O     -0.344242    2.168723    0.212980
H     0.339326    2.849413    0.344532
H     -1.202564    2.596323    0.380529
O     2.122559    0.326364    -0.224071
H     2.420038    0.393647    -1.148994
H     2.905050    0.449287    0.341575
O     0.336405    -2.158287    0.224401
H     1.185597    -2.607589    0.381069
H     -0.362946    -2.824621    0.345079
O     -2.100087    -0.346914    -0.143050
H     -2.852513    -0.442181    0.467842
H     -2.456170    -0.420163    -1.047135
O     -0.000219    -0.001883    -2.156923
C     0.222484    -1.104919    -2.998739
C     0.078696    -0.726047    -4.285623
C     -0.250924    0.678513    -4.286702
C     -0.292062    1.083375    -3.000381
H     0.454287    -2.027571    -2.491476
H     0.191543    -1.363173    -5.152317
H     -0.479148    2.016780    -2.494225
H     -0.430086    1.298801    -5.154469
