45

Mn     -0.008661    -0.029245    -0.343538
C     -0.104210    -0.232144    2.153608
O     -0.155805    -0.284076    3.279836
C     0.182000    0.253346    -2.562323
N     0.313565    0.414880    -3.703295
C     0.480665    0.623949    -5.110513
H     0.394966    -0.336519    -5.624066
H     1.468136    1.057466    -5.287563
H     -0.297166    1.307470    -5.459611
O     0.004939    2.162273    0.163709
C     -0.899074    2.903410    0.937648
C     -0.529052    4.201086    0.945742
C     0.663818    4.311972    0.144696
C     0.957583    3.075213    -0.309312
H     -1.718562    2.348044    1.364216
H     -1.039909    5.003037    1.460649
H     1.742621    2.655101    -0.917622
H     1.223825    5.214330    -0.058279
O     2.249142    -0.077395    -0.184182
C     3.022266    0.455995    0.856943
C     4.248188    -0.109886    0.844998
C     4.273920    -1.051908    -0.245427
C     3.062558    -1.008957    -0.840476
H     2.553092    1.232366    1.440305
H     5.059617    0.116264    1.523268
H     2.608273    -1.519931    -1.674448
H     5.106449    -1.674477    -0.543169
O     -0.049706    -2.276601    -0.324591
C     0.689065    -3.109946    0.528376
C     0.189972    -4.363215    0.477006
C     -0.915514    -4.346881    -0.447590
C     -1.031463    -3.084591    -0.911888
H     1.526707    -2.647156    1.025872
H     0.564018    -5.219415    1.021820
H     -1.688960    -2.589563    -1.608555
H     -1.534440    -5.187484    -0.729410
O     -2.255893    0.004151    -0.284800
C     -3.070969    0.992698    -0.849384
C     -4.328192    0.869725    -0.373352
C     -4.333068    -0.247399    0.537542
C     -3.078461    -0.744549    0.570036
H     -2.582510    1.665627    -1.536265
H     -5.171262    1.493515    -0.636666
H     -2.611815    -1.591217    1.047923
H     -5.181366    -0.630583    1.087857
