37

Mn     -0.011358    -0.051664    -0.002796
P     0.376662    2.335120    -0.387094
H     -0.522482    3.168876    0.317925
H     -0.044226    2.716915    -1.682962
P     2.201320    3.657581    -0.274875
H     2.651985    3.121656    0.966198
H     3.008691    2.770815    -1.044601
P     2.368247    -0.433182    0.418745
H     2.574685    -1.512990    1.309909
H     2.956192    0.557982    1.238688
P     4.141975    -0.828474    -0.921072
H     3.470451    -1.833360    -1.675801
H     3.810934    0.202462    -1.847226
P     -0.399723    -2.438340    0.381290
H     0.019013    -2.819728    1.677959
H     0.500442    -3.272177    -0.322315
P     -2.223996    -3.761048    0.266528
H     -3.033006    -2.874199    1.034437
H     -2.672598    -3.225854    -0.975596
P     -2.390897    0.330034    -0.424612
H     -2.979329    -0.662616    -1.242394
H     -2.596734    1.408049    -1.318061
P     -4.164234    0.728669    0.914652
H     -3.835379    -0.303309    1.840426
H     -3.491044    1.731912    1.670091
P     -0.324135    0.317647    2.398354
H     0.610077    -0.421343    3.162290
H     -1.480573    -0.313741    2.911705
P     -0.352797    2.162097    3.697574
H     0.870482    2.666336    3.168313
H     -1.151777    2.925744    2.798223
P     0.301597    -0.420972    -2.403935
H     1.456415    0.212780    -2.918017
H     -0.634526    0.315236    -3.168243
P     0.333814    -2.265863    -3.702512
H     1.132270    -3.028781    -2.802083
H     -0.889727    -2.770981    -3.174707
