37

Mn     0.021237    -0.039716    0.062793
P     0.259471    2.738699    0.146474
H     0.464039    3.079392    1.516125
P     2.218658    3.454521    -0.394354
H     3.395543    2.876434    0.129696
H     2.401538    3.303356    -1.777055
H     2.451077    4.830491    -0.195918
P     2.691325    -0.412227    -0.480287
H     2.796915    -1.447891    -1.454246
P     3.769306    -1.592825    0.974596
H     4.020946    -0.825947    2.121408
H     3.218075    -2.772945    1.522068
H     5.054202    -2.024841    0.589550
P     -0.247013    -2.746562    -0.416316
H     0.671291    -3.403288    0.453620
P     -1.910931    -3.795498    0.474353
H     -3.092558    -3.482472    -0.215983
H     -1.882071    -5.203685    0.415960
H     -2.288879    -3.577925    1.819637
P     -2.565259    0.637152    0.748812
H     -3.392066    -0.515324    0.589355
P     -3.592575    1.695772    -0.827707
H     -3.001894    2.959575    -0.975574
H     -3.613222    1.204120    -2.150561
H     -4.949965    1.998033    -0.597990
P     0.449595    -0.607439    2.727812
H     -0.619650    -1.490414    3.058514
P     -0.314431    0.883328    4.088481
H     0.563194    1.977842    4.133753
H     -1.564206    1.496542    3.850973
H     -0.414427    0.511750    5.444347
P     -0.378251    0.426146    -2.644545
H     0.712648    1.209919    -3.123544
P     0.163657    -1.214181    -3.935815
H     -0.830430    -2.202407    -3.902458
H     0.258971    -0.898400    -5.305472
H     1.339523    -1.970674    -3.729680
