67

Mn     -0.206797    0.008663    -0.006706
C     4.290777    0.434681    -0.854861
C     4.523017    1.778869    -0.639054
C     3.452118    2.622540    -0.264188
C     3.617443    4.028332    -0.027969
C     2.557165    4.807596    0.324939
C     1.246621    4.243467    0.479552
C     0.119640    5.016014    0.843098
C     -1.113105    4.407066    0.973072
C     -1.210500    3.023663    0.748774
N     -0.169253    2.262314    0.413096
C     1.048604    2.855103    0.265179
C     2.169452    2.032216    -0.126294
N     1.949967    0.707349    -0.355559
C     2.984337    -0.058546    -0.701715
H     5.092160    -0.238449    -1.139603
H     5.519615    2.196300    -0.752672
H     4.606876    4.461737    -0.139816
H     2.688409    5.871795    0.496661
H     0.233671    6.082839    1.014073
H     -1.997125    4.973300    1.245677
H     -2.163120    2.511192    0.843495
H     2.766249    -1.109813    -0.863160
C     0.336509    -0.346128    4.549351
C     0.617904    -1.686066    4.730704
C     0.655996    -2.550126    3.612317
C     0.933866    -3.954239    3.720805
C     0.954083    -4.751798    2.616315
C     0.709959    -4.209006    1.310212
C     0.725098    -4.996909    0.136541
C     0.486130    -4.403537    -1.087492
C     0.240662    -3.020559    -1.132373
N     0.222054    -2.246041    -0.047849
C     0.443120    -2.823638    1.165595
C     0.401169    -1.982623    2.337921
N     0.110661    -0.662245    2.171553
C     0.086955    0.122911    3.248264
H     0.302392    0.342205    5.386896
H     0.810646    -2.084458    5.722952
H     1.124381    -4.370628    4.705400
H     1.159895    -5.814182    2.706361
H     0.923745    -6.062674    0.208295
H     0.487057    -4.981326    -2.005385
H     0.049111    -2.522754    -2.078376
H     -0.142848    1.169232    3.070371
C     -0.608531    0.685353    -4.535972
C     -1.962333    0.528700    -4.760198
C     -2.820327    0.228533    -3.677108
C     -4.235729    0.047907    -3.831504
C     -5.025410    -0.242277    -2.759737
C     -4.466490    -0.365225    -1.443448
C     -5.248921    -0.656627    -0.302414
C     -4.642847    -0.752069    0.935004
C     -3.255449    -0.549813    1.025914
N     -2.486430    -0.272368    -0.026490
C     -3.072473    -0.185933    -1.253274
C     -2.233185    0.102864    -2.392081
N     -0.894833    0.246828    -2.184781
C     -0.117310    0.532723    -3.228559
H     0.074582    0.918923    -5.345432
H     -2.376550    0.634892    -5.758960
H     -4.667232    0.144933    -4.823332
H     -6.095089    -0.381245    -2.885169
H     -6.320195    -0.802529    -0.409499
H     -5.215434    -0.976245    1.828501
H     -2.745394    -0.614830    1.982231
H     0.941278    0.646168    -3.015833
