59

Mn     0.014236    -0.001024    -0.215949
O     0.000649    0.007204    2.033241
H     0.782462    -0.035922    2.609381
H     -0.778010    -0.016899    2.614511
C     -0.135007    4.952436    -0.124070
C     -0.539293    4.247723    -1.257021
C     -0.477597    2.857769    -1.245536
N     -0.034703    2.143342    -0.187189
C     0.354733    2.839694    0.905049
C     0.317796    4.227510    0.979078
H     -0.173627    6.037047    -0.101100
H     -0.899380    4.760239    -2.143208
H     -0.790343    2.285491    -2.108064
H     0.698739    2.247088    1.741629
H     0.642787    4.725353    1.886798
C     4.915061    0.204410    0.534676
C     4.161560    -0.897970    0.936641
C     2.800506    -0.927806    0.648978
N     2.152140    0.073725    0.009587
C     2.896127    1.139052    -0.370150
C     4.264197    1.237931    -0.139365
H     5.979932    0.256994    0.740182
H     4.615883    -1.732863    1.460224
H     2.196798    -1.781535    0.930451
H     2.364110    1.934429    -0.876920
H     4.802410    2.115352    -0.482261
C     0.031328    -4.959080    -0.143583
C     -0.407014    -4.224707    0.959005
C     -0.381617    -2.836266    0.896586
N     0.048492    -2.148107    -0.185653
C     0.485400    -2.871344    -1.240240
C     0.489873    -4.262757    -1.261463
H     0.017492    -6.044685    -0.129845
H     -0.768371    -4.714917    1.857055
H     -0.709802    -2.237701    1.735637
H     0.837262    -2.304441    -2.091498
H     0.849235    -4.784402    -2.142503
C     -4.895492    -0.185576    0.451285
C     -4.240464    -1.217379    -0.221284
C     -2.866116    -1.131287    -0.415241
N     -2.118135    -0.086484    0.008814
C     -2.768234    0.906530    0.659001
C     -4.138182    0.894983    0.901476
H     -5.967102    -0.223569    0.619516
H     -4.780653    -2.081177    -0.594524
H     -2.330878    -1.918528    -0.930214
H     -2.160218    1.739382    0.988814
H     -4.597302    1.726205    1.426618
C     0.023299    0.016816    -5.230515
C     1.216908    0.086345    -4.512501
C     1.170492    0.074414    -3.121961
N     0.019787    -0.009315    -2.415860
C     -1.128724    -0.080811    -3.126936
C     -1.172254    -0.066398    -4.517328
H     0.025131    0.024980    -6.316000
H     2.175835    0.150367    -5.016070
H     2.081504    0.126340    -2.540711
H     -2.041927    -0.140991    -2.550354
H     -2.130148    -0.121383    -5.024173
