34

Mn     0.094926    0.053038    0.060592
C     0.418092    1.969158    0.446249
N     0.598066    3.095704    0.677120
C     0.817119    4.478525    0.972218
H     1.800916    4.777063    0.601927
H     0.771853    4.623950    2.054493
H     0.041435    5.077282    0.488522
C     2.049543    -0.220018    0.304160
N     3.191022    -0.393704    0.444919
C     4.595410    -0.612024    0.608339
H     4.958633    -1.237106    -0.211092
H     4.769564    -1.116265    1.562155
H     5.113518    0.349939    0.599378
C     -0.213197    -1.871769    -0.326884
N     -0.378478    -3.001604    -0.548946
C     -0.574936    -4.390945    -0.827899
H     -1.332490    -4.496840    -1.608298
H     -0.911296    -4.894021    0.082124
H     0.368233    -4.827246    -1.165433
C     -1.855052    0.310238    -0.184461
N     -3.000523    0.466256    -0.319488
C     -4.410707    0.656152    -0.471164
H     -4.702020    1.594411    0.007066
H     -4.937172    -0.178560    -0.001695
H     -4.656288    0.692272    -1.535454
C     -0.225864    -0.239834    1.981817
N     -0.406863    -0.423410    3.115000
C     -0.630712    -0.650466    4.509364
H     -0.011237    -1.489802    4.835526
H     -1.685433    -0.885226    4.671410
H     -0.357833    0.247761    5.068528
S     0.536958    0.370906    -2.348640
H     -0.671935    0.494948    -2.936360
H     0.850179    1.675445    -2.497795
