32

Mn     0.072290    0.074021    0.267515
C     -0.293533    1.995669    0.464344
N     -0.496019    3.143937    0.509901
C     -0.733457    4.546637    0.494518
H     0.096550    5.051428    -0.007150
H     -0.817310    4.917222    1.519696
H     -1.661918    4.755731    -0.043703
C     2.004106    0.314145    0.546467
N     3.157075    0.469575    0.635279
C     4.565737    0.666429    0.669367
H     5.072652    -0.248716    0.351534
H     4.878221    0.919571    1.686022
H     4.834780    1.482386    -0.006835
C     0.454642    -1.829168    -0.046966
N     0.689322    -2.942188    -0.306904
C     0.988300    -4.279065    -0.691216
H     0.074686    -4.780144    -1.022448
H     1.410953    -4.821190    0.158957
H     1.711607    -4.267555    -1.511092
C     -1.841669    -0.146722    -0.128570
N     -2.961221    -0.266597    -0.434856
C     -4.307164    -0.399328    -0.876785
H     -4.908098    0.425423    -0.484201
H     -4.719557    -1.348171    -0.523241
H     -4.331124    -0.377838    -1.969659
C     -0.230791    -0.239927    2.201320
N     -0.407818    -0.423169    3.341798
C     -0.619376    -0.647511    4.730940
H     0.157809    -1.309383    5.122875
H     -1.599274    -1.108991    4.880677
H     -0.586222    0.307014    5.263272
F     0.362096    0.363837    -1.512138
