31

Mn     0.038270    -0.091233    -0.056272
S     -0.278064    2.330690    -0.493489
H     -0.317504    2.893245    0.735505
C     1.403536    2.904956    -1.010036
H     1.455809    3.983039    -0.828916
H     1.431013    2.756197    -2.093194
C     2.549001    2.184333    -0.313697
H     2.589451    2.423960    0.752591
H     3.511386    2.471112    -0.749078
S     2.430921    0.338303    -0.386749
H     2.684134    0.179561    -1.705653
S     0.528952    -2.458333    0.301080
H     -0.653427    -3.066493    0.543801
C     1.196586    -2.498627    2.024671
H     1.142421    -3.533214    2.377830
H     2.253677    -2.239363    1.920283
C     0.472022    -1.558972    2.977854
H     -0.568038    -1.854334    3.141617
H     0.963257    -1.536237    3.955689
S     0.390765    0.184253    2.357109
H     1.698559    0.485247    2.526377
S     -2.379330    -0.282624    0.259275
H     -2.667463    -1.366512    1.011518
C     -3.013965    -0.932518    -1.366501
H     -4.086623    -0.725445    -1.405524
H     -2.861177    -2.013849    -1.400326
C     -2.309859    -0.225185    -2.512186
H     -2.658339    -0.627425    -3.467187
H     -2.481348    0.853460    -2.492665
S     -0.479054    -0.538962    -2.403324
H     -0.077747    0.509527    -3.154651
