151

Mn     -0.004850    -0.054760    0.012170
C     0.302947    1.855126    -0.307513
N     0.467366    2.999078    -0.486342
C     0.635947    4.361609    -0.681082
C     -0.335348    5.253222    -0.203094
C     -0.156982    6.614515    -0.401911
C     0.971369    7.131397    -1.069830
C     1.115465    8.649263    -1.262872
C     -0.084484    9.167286    -2.093671
C     1.119018    9.337982    0.123843
C     2.414785    9.025095    -1.999762
C     1.923213    6.208927    -1.535235
C     1.768496    4.837563    -1.349255
H     -1.209794    4.874558    0.316357
H     -0.916992    7.292395    -0.028148
H     -0.114190    8.696447    -3.082538
H     0.001793    10.249846    -2.236941
H     -1.042060    8.975825    -1.598218
H     1.961239    8.994618    0.734804
H     0.195776    9.144801    0.679469
H     1.210326    10.422522    0.000886
H     3.307797    8.716873    -1.443971
H     2.464382    10.111837    -2.118936
H     2.459317    8.585636    -3.002691
H     2.807212    6.557078    -2.055255
H     2.514031    4.140064    -1.717730
C     1.912974    -0.325421    -0.272939
N     3.058769    -0.486443    -0.443901
C     4.418129    -0.668403    -0.651054
C     4.919893    -1.955647    -0.889627
C     6.281692    -2.120457    -1.099241
C     7.178778    -1.033733    -1.081142
C     8.677567    -1.274618    -1.321358
C     9.219025    -2.221861    -0.222520
C     8.869761    -1.931642    -2.710154
C     9.493269    0.032037    -1.282292
C     6.640800    0.240601    -0.836272
C     5.278652    0.433637    -0.622124
H     4.245533    -2.805763    -0.910354
H     6.654523    -3.122777    -1.282054
H     9.099358    -1.782004    0.773783
H     10.286301    -2.407839    -0.384410
H     8.711010    -3.191983    -0.227067
H     8.499596    -1.281548    -3.510732
H     8.350071    -2.892262    -2.785922
H     9.934301    -2.116045    -2.890311
H     9.173002    0.739087    -2.055913
H     10.549210    -0.192323    -1.461871
H     9.427278    0.527708    -0.307122
H     7.289183    1.107781    -0.810056
H     4.882042    1.426193    -0.433189
C     -0.315514    -1.964110    0.332917
N     -0.482214    -3.105510    0.525014
C     -0.662441    -4.461165    0.754463
C     -1.953195    -4.968303    0.961086
C     -2.115003    -6.326805    1.192562
C     -1.021355    -7.215137    1.228463
C     -1.258460    -8.710051    1.493746
C     -1.930784    -8.876909    2.878542
C     -2.189535    -9.278527    0.394891
C     0.052329    -9.520087    1.487325
C     0.256566    -6.671841    1.015923
C     0.446500    -5.313090    0.780027
H     -2.808746    -4.300902    0.936994
H     -3.119758    -6.704617    1.349912
H     -1.290490    -8.489129    3.678645
H     -2.113891    -9.938345    3.077674
H     -2.893767    -8.358576    2.933998
H     -1.740653    -9.171715    -0.598827
H     -3.164482    -8.780177    0.381224
H     -2.367226    -10.344547    0.573209
H     0.563320    -9.466153    0.519315
H     -0.170393    -10.574261    1.678968
H     0.745444    -9.185934    2.267577
H     1.129119    -7.313220    1.033744
H     1.441961    -4.911554    0.619841
C     -1.923011    0.224682    0.294387
N     -3.068768    0.402851    0.446970
C     -4.427876    0.624512    0.613938
C     -4.971953    1.874822    0.287473
C     -6.334558    2.080942    0.449918
C     -7.191031    1.072364    0.934824
C     -8.693338    1.355750    1.093305
C     -8.884518    2.523536    2.092375
C     -9.281918    1.753762    -0.282544
C     -9.467188    0.132845    1.620722
C     -6.610576    -0.165789    1.255405
C     -5.246630    -0.399464    1.100188
H     -4.329536    2.663808    -0.090247
H     -6.741413    3.052627    0.190812
H     -8.481770    2.270741    3.079465
H     -9.951398    2.742827    2.208306
H     -8.394467    3.441681    1.751603
H     -9.170849    0.943281    -1.011541
H     -8.799389    2.647095    -0.692055
H     -10.350442    1.972373    -0.181449
H     -9.392206    -0.724822    0.942447
H     -10.528339    0.384800    1.711125
H     -9.120141    -0.175934    2.613303
H     -7.226544    -0.972948    1.632696
H     -4.817106    -1.363626    1.353049
C     0.302549    0.239409    1.940679
N     0.478984    0.413144    3.082834
C     0.680940    0.620770    4.436664
C     1.790567    1.362710    4.868656
C     1.975530    1.566187    6.228049
C     1.082395    1.050592    7.189663
C     1.333086    1.312198    8.682357
C     2.710369    0.723695    9.076834
C     1.333564    2.840462    8.933286
C     0.256810    0.672201    9.579335
C     -0.015938    0.310305    6.720033
C     -0.225590    0.090896    5.362082
H     2.488177    1.767937    4.142760
H     2.836337    2.142879    6.548976
H     2.740343    -0.359079    8.912224
H     2.901323    0.909635    10.139178
H     3.531071    1.175697    8.510072
H     0.367297    3.285942    8.671329
H     2.110737    3.353339    8.357021
H     1.521767    3.042643    9.993231
H     -0.744029    1.065088    9.366637
H     0.477313    0.896441    10.627485
H     0.231914    -0.418856    9.478305
H     -0.728756    -0.106254    7.421008
H     -1.079832    -0.482607    5.016871
C     -0.309116    -0.345081    -1.917434
N     -0.478207    -0.510252    -3.061963
C     -0.656168    -0.694575    -4.422557
C     0.312089    -0.214056    -5.317358
C     0.124484    -0.405544    -6.677775
C     -1.011092    -1.065741    -7.190496
C     -1.165310    -1.250452    -8.707879
C     -1.165578    0.139849    -9.389671
C     0.027892    -2.084645    -9.236532
C     -2.470460    -1.979018    -9.079921
C     -1.960110    -1.532227    -6.264743
C     -1.795535    -1.356256    -4.893924
H     1.192067    0.297410    -4.940765
H     0.881922    -0.032724    -7.358908
H     -2.002632    0.753505    -9.038701
H     -1.263987    0.021957    -10.474129
H     -0.238242    0.689728    -9.199728
H     0.055876    -3.075702    -8.770262
H     0.988929    -1.594439    -9.049101
H     -0.066290    -2.222639    -10.319085
H     -2.517199    -2.984165    -8.645849
H     -2.526868    -2.091862    -10.166984
H     -3.358942    -1.420700    -8.763447
H     -2.849190    -2.044905    -6.610585
H     -2.538546    -1.723516    -4.193271
