37

Mn     -0.000287    -0.000289    0.009749
O     -0.001194    0.000200    2.067545
H     0.556911    -0.555175    2.634816
H     -0.549456    0.567069    2.633048
C     -0.041521    2.011824    0.013996
N     -0.037048    3.174648    0.024226
C     -0.004898    4.605531    0.018914
H     0.831974    4.940886    -0.598392
H     0.126331    4.963221    1.043054
H     -0.944135    4.987173    -0.388384
C     2.012450    -0.019389    0.012513
N     3.175247    -0.011629    0.019290
C     4.606629    0.005045    0.005285
H     4.968255    -0.826011    -0.605395
H     4.975149    -0.101037    1.028653
H     4.951113    0.952889    -0.415462
C     0.041089    -2.012439    0.014111
N     0.036887    -3.175241    0.023699
C     0.004802    -4.606132    0.018836
H     -0.832069    -4.941875    -0.598252
H     -0.126366    -4.963331    1.043139
H     0.944023    -4.988025    -0.388246
C     -2.012554    0.018994    0.013480
N     -3.175328    0.011276    0.020083
C     -4.606620    -0.005207    0.003898
H     -4.945792    -0.615300    -0.837151
H     -4.977223    1.016987    -0.104807
H     -4.970704    -0.434304    0.940715
O     -0.000935    -0.000455    -2.107128
C     0.791426    -0.790434    -2.942344
C     0.509600    -0.508787    -4.232088
C     -0.510541    0.509260    -4.231982
C     -0.793043    0.790042    -2.942186
H     1.466843    -1.465469    -2.444484
H     0.968765    -0.966792    -5.097280
H     -1.469197    1.464312    -2.444268
H     -0.969315    0.967763    -5.097128
