23

Mn     -0.000147    0.000100    -0.155731
C     0.005639    2.448666    0.233684
O     0.005573    3.542685    0.503195
C     2.480359    -0.003981    0.010226
O     3.606603    -0.004886    -0.019398
C     -0.005687    -2.448584    0.233149
O     -0.005467    -3.542662    0.502391
C     -2.480561    0.003999    0.010251
O     -3.606791    0.004784    -0.019346
O     0.000022    -0.000063    2.102437
H     0.772475    0.047174    2.696383
H     -0.772304    -0.047656    2.696520
C     0.000101    0.000454    -5.086213
C     -0.028448    1.202288    -4.375018
C     -0.027716    1.161985    -2.988636
N     -0.000019    0.000228    -2.283146
C     0.027743    -1.161466    -2.988741
C     0.028596    -1.201481    -4.375141
H     0.000129    0.000512    -6.172055
H     -0.050794    2.159546    -4.884728
H     -0.050109    2.085214    -2.419170
H     0.050036    -2.084814    -2.419374
H     0.051016    -2.158684    -4.884956
