25
03/24/2023 16:57, XYZ structure generated by mol3D Class, molSimplify
Mn     0.001460    -0.015662    -0.003290
N     -0.269592    2.292255    0.376987
H     -1.251307    2.544317    0.514660
H     0.210931    2.654414    1.204225
H     0.045321    2.887516    -0.392943
N     2.309214    0.289218    -0.363802
H     2.557270    1.279573    -0.427168
H     2.898500    -0.079758    0.386546
H     2.682792    -0.128469    -1.219856
N     0.278891    -2.317694    -0.395532
H     1.262072    -2.558023    -0.544012
H     -0.022533    -2.922690    0.372383
H     -0.205787    -2.682678    -1.219236
N     -2.300561    -0.350867    0.369460
H     -2.510569    -1.334143    0.556791
H     -2.715048    0.158899    1.153478
H     -2.881716    -0.111804    -0.437525
N     0.408151    -0.305514    2.299179
H     -0.400666    -0.074341    2.881019
H     0.638908    -1.270010    2.549799
H     1.175053    0.253751    2.680628
N     -0.429129    0.396781    -2.284125
H     -1.133556    1.114860    -2.469623
H     0.403158    0.707252    -2.791009
H     -0.751262    -0.427191    -2.797073
