37

Mn     0.000457    0.000025    -0.001011
C     0.245305    1.937089    0.360168
N     0.397393    3.071876    0.565105
C     0.582910    4.466847    0.818328
H     1.402902    4.836546    0.197541
H     0.825338    4.613113    1.873678
H     -0.336233    5.003535    0.570977
C     1.925450    -0.371603    0.310722
N     3.055834    -0.580275    0.488373
C     4.445011    -0.836842    0.709056
H     4.873094    -1.301751    -0.182324
H     4.553470    -1.509078    1.563912
H     4.956037    0.106574    0.916341
C     -0.244405    -1.936857    -0.362571
N     -0.396145    -3.071438    -0.568778
C     -0.582404    -4.465892    -0.824023
H     -1.323803    -4.592582    -1.616577
H     -0.930070    -4.954709    0.089451
H     0.369528    -4.903428    -1.135061
C     -1.924950    0.370901    -0.310983
N     -3.056129    0.577935    -0.485514
C     -4.446435    0.833434    -0.700066
H     -4.707432    1.800955    -0.264413
H     -5.032422    0.044603    -0.221655
H     -4.650361    0.842802    -1.773558
C     -0.282739    -0.255700    1.947127
N     -0.455400    -0.409393    3.087074
C     -0.666903    -0.595912    4.488744
H     -0.256719    -1.562327    4.791677
H     -1.739305    -0.567513    4.697140
H     -0.165430    0.205936    5.036462
C     0.283837    0.255990    -1.949024
N     0.456800    0.409946    -3.088885
C     0.668068    0.597329    -4.490539
H     -0.179569    0.178874    -5.039073
H     1.587444    0.087554    -4.788526
H     0.751265    1.666060    -4.702700
