47

Mn     -0.004915    0.000754    -0.038031
C     0.266591    2.356097    -0.135520
N     0.417581    3.504894    -0.240579
C     0.603044    4.916403    -0.375609
H     1.263604    5.111531    -1.223762
H     1.051114    5.309342    0.540059
H     -0.366746    5.390364    -0.545180
C     2.359013    -0.216869    0.097315
N     3.512420    -0.216041    0.250904
C     4.928455    -0.199892    0.449831
H     5.381737    -1.016677    -0.116790
H     5.142251    -0.324943    1.514113
H     5.327623    0.756409    0.103130
C     -0.273207    -2.353514    -0.137494
N     -0.423113    -3.502769    -0.238789
C     -0.606207    -4.915363    -0.366522
H     -1.267040    -5.116454    -1.213162
H     -1.053125    -5.303754    0.551706
H     0.364547    -5.388348    -0.533857
C     -2.365043    0.216758    0.106652
N     -3.518811    0.210159    0.257085
C     -4.935054    0.184648    0.453591
H     -5.388906    -0.474750    -0.290178
H     -5.332442    1.196241    0.342047
H     -5.148841    -0.188818    1.457966
C     0.027974    0.004394    5.065026
C     -0.502088    1.082678    4.355754
C     -0.492969    1.038213    2.965503
N     0.006725    -0.000139    2.266382
C     0.516490    -1.036547    2.961074
C     0.546542    -1.076479    4.351115
H     0.035905    0.006150    6.150774
H     -0.914745    1.945525    4.867777
H     -0.896439    1.859910    2.380908
H     0.910109    -1.860305    2.372769
H     0.968245    -1.936795    4.859795
C     -0.017090    0.001034    -5.125594
C     0.912402    -0.760777    -4.416139
C     0.880100    -0.730537    -3.025981
N     -0.008668    0.004223    -2.328087
C     -0.899875    0.739679    -3.022182
C     -0.940461    0.766773    -4.412268
H     -0.022428    -0.002604    -6.211553
H     1.652384    -1.367504    -4.927427
H     1.587381    -1.311539    -2.441077
H     -1.603449    1.322586    -2.434585
H     -1.679509    1.377040    -4.920915
