20

Mn     0.000015    0.045601    0.025708
O     -0.470841    2.077866    0.165909
H     -0.731514    2.562619    0.968868
H     -0.211959    2.748400    -0.492323
O     2.090077    0.344938    0.148696
H     2.665783    -0.304902    0.588165
H     2.511835    1.214621    0.259755
O     0.451186    -1.983604    -0.148327
H     0.826745    -2.351992    -0.967520
H     -0.034633    -2.714071    0.274897
O     -2.106056    -0.259836    -0.091421
H     -2.639360    0.529467    -0.293647
H     -2.551940    -1.009569    -0.522548
N     -0.244253    -0.255965    2.070587
H     0.102525    0.492971    2.676472
H     0.206523    -1.106207    2.420142
H     -1.241596    -0.355956    2.279845
S     0.367218    0.557206    -2.435287
H     -0.472076    -0.136367    -3.232492
H     1.482370    -0.095263    -2.822829
