13

Mn     0.011531    0.018420    0.024052
N     0.367471    2.235784    -0.300247
P     0.576213    3.694549    -0.493541
N     2.228745    -0.305901    0.380589
P     3.687419    -0.499707    0.589501
N     -0.344074    -2.199044    0.348864
P     -0.552194    -3.657802    0.542906
N     -2.205754    0.342681    -0.331971
P     -3.664564    0.536522    -0.539900
N     -0.313326    0.374275    2.241448
P     -0.507457    0.582559    3.700171
N     0.336181    -0.337850    -2.193104
P     0.529836    -0.546975    -3.651768
