24

Mn     0.000368    0.000312    0.025875
C     0.020671    2.474271    -0.031338
O     0.038619    3.600408    -0.006481
C     2.472211    0.016216    -0.037776
O     3.598390    0.033760    -0.016826
C     -0.021000    -2.473827    -0.030917
O     -0.039183    -3.599929    -0.006338
C     -2.471726    -0.016048    -0.037778
O     -3.597909    -0.033691    -0.017177
C     0.000822    0.000960    2.249304
N     0.000715    0.000808    3.408384
C     -0.000297    -0.000443    4.842307
H     0.608366    -0.838476    5.191762
H     -1.030485    -0.109622    5.191049
H     0.420382    0.945296    5.193716
O     0.000074    0.000061    -2.167282
C     0.776363    -0.814914    -3.016128
C     0.497033    -0.522504    -4.301551
C     -0.497315    0.522392    -4.301511
C     -0.776404    0.814927    -3.016060
H     1.438794    -1.513598    -2.529148
H     0.940384    -0.989738    -5.170875
H     -1.438769    1.513634    -2.529028
H     -0.940832    0.989545    -5.170791
