29

Mn     0.000053    0.000006    0.072475
C     -0.038845    1.995539    0.149955
O     -0.052779    3.120803    0.240971
C     1.966089    -0.040531    -0.074758
O     3.086024    -0.062273    -0.234362
C     0.038944    -1.995544    0.149953
O     0.052832    -3.120799    0.240875
C     -1.965966    0.040504    -0.074468
O     -3.085921    0.062198    -0.233872
O     -0.000072    -0.000099    -2.014757
C     0.786111    -0.811750    -2.866338
C     0.501504    -0.519010    -4.148780
C     -0.501866    0.518935    -4.148702
C     -0.786358    0.811603    -2.866228
H     1.445793    -1.514174    -2.382614
H     0.948848    -0.983135    -5.017828
H     -1.446051    1.513966    -2.382390
H     -0.949288    0.983128    -5.017685
C     0.000440    0.000212    4.932748
C     1.191717    0.132866    4.217346
C     1.156179    0.120446    2.831050
N     0.000147    0.000048    2.121005
C     -1.155738    -0.120343    2.831300
C     -1.190975    -0.132634    4.217609
H     0.000545    0.000371    6.018603
H     2.146078    0.242745    4.721362
H     2.079278    0.222943    2.276365
H     -2.078951    -0.222896    2.276810
H     -2.145210    -0.242608    4.721845
