14

Mn     -0.034999    0.068508    -0.083130
C     0.314199    2.443655    0.318092
O     0.482819    3.545158    0.472116
C     2.338512    -0.322252    0.342033
O     3.433433    -0.502380    0.528617
C     -0.397566    -2.321815    -0.387740
O     -0.556837    -3.420940    -0.569332
C     -2.419845    0.477681    -0.390792
O     -3.515866    0.678627    -0.546452
C     -0.435031    -0.264455    2.307724
O     -0.624628    -0.410363    3.406956
S     0.384419    0.523304    -2.711250
H     -0.462571    -0.311634    -3.353945
H     1.493951    -0.183104    -3.023502
