25

Mn     0.016411    -0.052376    -0.184562
O     -0.448326    2.061427    -0.758501
H     -1.377109    2.319111    -0.607514
S     0.554741    3.398902    -0.269159
H     0.677814    3.942695    -1.502199
O     2.162250    0.089415    0.082822
H     2.461354    0.273199    1.002559
S     3.221304    0.878564    -1.051242
H     4.017466    -0.196886    -1.258849
O     0.387468    -2.166977    0.224313
H     1.282032    -2.500788    0.023555
S     -0.763880    -3.446199    -0.002585
H     -0.769466    -3.864686    1.284871
O     -2.241011    -0.173706    0.024690
H     -2.646820    -0.734454    -0.664983
S     -3.090378    -0.481531    1.509116
H     -3.908891    0.594383    1.435282
O     -0.069290    0.511084    1.994942
H     -0.926816    0.336350    2.442901
S     1.208555    0.297220    3.143423
H     1.294670    1.594842    3.521648
O     -0.461057    -0.393050    -2.297418
H     -0.586496    0.444287    -2.785156
S     0.484759    -1.459140    -3.306533
H     -0.571004    -2.146042    -3.801114
