33

Mn     0.002870    -0.001179    0.002095
C     0.262861    1.960780    -0.275356
N     0.419445    3.102587    -0.443668
C     0.608542    4.506375    -0.652803
H     1.581667    4.673240    -1.121010
H     0.572130    5.019017    0.311736
H     -0.185556    4.885016    -1.300909
C     1.946225    -0.343095    0.307714
N     3.080646    -0.533579    0.490077
C     4.475668    -0.765492    0.713823
H     4.855596    -1.437918    -0.059384
H     4.609890    -1.223885    1.696769
H     5.011273    0.185998    0.673007
C     -0.270464    -1.962235    0.272928
N     -0.440552    -3.103380    0.432100
C     -0.649185    -4.506530    0.626038
H     -1.300823    -4.884997    -0.165384
H     -1.122588    -4.666103    1.598076
H     0.312916    -5.023478    0.594091
C     -1.945114    0.331874    -0.300709
N     -3.082135    0.512771    -0.477170
C     -4.480486    0.733761    -0.691087
H     -4.722621    1.773491    -0.457939
H     -5.053314    0.064378    -0.044625
H     -4.718918    0.525818    -1.737267
N     -0.230663    0.304875    2.082942
H     -1.215349    0.386373    2.340355
H     0.160015    -0.444243    2.656126
H     0.215045    1.169804    2.393801
N     0.283851    -0.269044    -2.079077
H     -0.436612    0.172131    -2.652439
H     1.176270    0.120684    -2.387668
H     0.302095    -1.256289    -2.338262
