51

Mn     -0.077356    0.002781    0.287493
C     -0.566346    5.003348    -0.618573
C     0.574523    4.325173    -1.049249
C     0.689952    2.965782    -0.777139
N     -0.256470    2.262844    -0.118153
C     -1.360837    2.929388    0.284618
C     -1.552619    4.288768    0.063580
H     -0.685579    6.065087    -0.811683
H     1.365947    4.836955    -1.586623
H     1.572537    2.413093    -1.083192
H     -2.121823    2.341442    0.790561
H     -2.458216    4.771584    0.415501
C     4.913131    0.665948    1.180863
C     3.954795    1.489939    1.773556
C     2.612709    1.269307    1.484632
N     2.183734    0.286152    0.662791
C     3.121134    -0.504562    0.097033
C     4.484872    -0.348039    0.323493
H     5.970058    0.812694    1.381274
H     4.238922    2.293243    2.445179
H     1.845888    1.908688    1.912532
H     2.759458    -1.292705    -0.555809
H     5.192226    -1.010973    -0.163524
C     0.600507    -5.036230    0.482919
C     1.072794    -4.205475    1.500415
C     0.874122    -2.833966    1.389519
N     0.236825    -2.261501    0.345578
C     -0.219273    -3.076391    -0.630308
C     -0.055578    -4.457234    -0.604266
H     0.741727    -6.111439    0.535891
H     1.589628    -4.609438    2.364509
H     1.249026    -2.159908    2.153582
H     -0.739139    -2.596210    -1.453273
H     -0.437671    -5.062019    -1.419863
C     -4.795045    -0.732198    -1.443733
C     -3.935925    0.146258    -2.105434
C     -2.650322    0.328927    -1.607231
N     -2.186115    -0.313731    -0.513779
C     -3.025199    -1.166164    0.114510
C     -4.328687    -1.399025    -0.309436
H     -5.806173    -0.894537    -1.804426
H     -4.253174    0.684783    -2.992196
H     -1.963673    1.018941    -2.087749
H     -2.625801    -1.688263    0.979445
H     -4.959666    -2.091848    0.237273
N     -0.572723    0.250239    2.511115
H     -1.339342    -0.323502    2.867810
H     -0.827603    1.218247    2.718566
H     0.232753    0.047737    3.106489
C     0.699286    -0.175787    -2.365342
O     1.023902    -0.276195    -3.444381
