63

Mn     0.006383    0.007653    0.018016
O     0.008131    0.005447    2.517073
C     -0.242845    1.093025    3.347562
C     -0.153109    0.720786    4.645300
C     0.174902    -0.678759    4.655200
C     0.261933    -1.069512    3.362853
H     -0.438726    2.027230    2.847239
H     -0.299914    1.360093    5.504735
H     0.459684    -2.010902    2.877124
H     0.324159    -1.306121    5.523140
O     0.003772    0.013570    -2.516606
C     -1.013931    0.476477    -3.343076
C     -0.678157    0.313211    -4.642866
C     0.629012    -0.284359    -4.660198
C     1.000346    -0.447634    -3.369987
H     -1.888483    0.858829    -2.844663
H     -1.283515    0.582477    -5.497227
H     1.890883    -0.825053    -2.896043
H     1.210990    -0.553120    -5.530644
C     0.052178    5.103603    -0.010505
C     1.001112    4.385641    0.718548
C     0.950613    2.996260    0.702535
N     0.012358    2.301161    0.020612
C     -0.902261    3.007781    -0.676716
C     -0.915732    4.397226    -0.724172
H     0.066361    6.188998    -0.021402
H     1.771595    4.890204    1.290978
H     1.680373    2.409698    1.250679
H     -1.651928    2.432854    -1.207415
H     -1.672954    4.909327    -1.307474
C     5.080564    0.075699    -0.023959
C     4.351734    0.872638    -0.908767
C     2.962723    0.825254    -0.864893
N     2.281358    0.030406    -0.009536
C     2.996340    -0.735181    0.842941
C     4.386871    -0.740216    0.870889
H     6.166284    0.091322    -0.030333
H     4.847238    1.524201    -1.620724
H     2.364949    1.437984    -1.531425
H     2.426592    -1.360239    1.522057
H     4.910429    -1.370706    1.581901
C     -0.069771    -5.082801    -0.002806
C     -0.975254    -4.357116    0.773233
C     -0.914877    -2.968233    0.751808
N     -0.012136    -2.281716    0.016059
C     0.855581    -2.994490    -0.732548
C     0.861434    -4.384585    -0.772223
H     -0.090281    -6.168429    -0.008023
H     -1.720204    -4.854761    1.384922
H     -1.607252    -2.374080    1.338925
H     1.569385    -2.423063    -1.314432
H     1.584022    -4.903560    -1.392963
C     -5.066140    -0.135181    0.004508
C     -4.332001    -0.914429    -0.891503
C     -2.943618    -0.849596    -0.854786
N     -2.268027    -0.055459    0.005788
C     -2.987583    0.688389    0.873427
C     -4.378013    0.677113    0.907221
H     -6.151668    -0.163524    0.001190
H     -4.823036    -1.564362    -1.608011
H     -2.342569    -1.448048    -1.531057
H     -2.420768    1.307205    1.561080
H     -4.905275    1.293368    1.627936
