35

Mn     -0.068205    -0.073315    0.000035
C     -0.604426    3.029061    -0.441494
N     -0.423494    1.894038    -0.301587
C     -0.834950    4.457767    -0.614940
H     -1.336578    4.642751    -1.570452
H     0.118778    4.995188    -0.605249
H     -1.465726    4.836048    0.195990
C     3.048216    0.354040    -0.474740
N     1.912647    0.183564    -0.325906
C     4.478429    0.564880    -0.659654
H     4.690844    1.634093    -0.760620
H     4.819080    0.048661    -1.563228
H     5.028418    0.171920    0.201590
C     0.460880    -3.175677    0.456643
N     0.279126    -2.046438    0.276338
C     0.693537    -4.595977    0.686372
H     1.757953    -4.824909    0.571824
H     0.123020    -5.190149    -0.035006
H     0.376884    -4.867824    1.698499
C     -3.176947    -0.512390    0.494680
N     -2.048625    -0.338398    0.301636
C     -4.596678    -0.729654    0.742038
H     -4.729974    -1.500609    1.507783
H     -5.092002    -1.054625    -0.178811
H     -5.062776    0.199297    1.086210
C     0.363881    0.413385    3.136012
N     0.199748    0.228552    2.005349
C     0.567121    0.645552    4.560329
H     -0.257345    0.205131    5.130427
H     0.601763    1.721065    4.762005
H     1.508151    0.191071    4.886147
N     -0.303252    -0.339056    -2.047345
H     -1.245728    -0.107998    -2.364754
H     0.342539    0.247842    -2.577231
H     -0.123198    -1.303670    -2.330215
