50

Mn     0.088825    -0.088583    0.240512
C     0.319487    0.221329    -2.219982
O     0.426318    0.427586    -3.324046
O     0.076298    2.173996    0.152277
C     -1.043062    2.969786    -0.138762
C     -0.636779    4.186665    -0.556814
C     0.804717    4.186344    -0.544190
C     1.201926    2.969189    -0.118301
H     -1.998962    2.502212    0.034650
H     -1.281328    5.008079    -0.838453
H     2.153425    2.502351    0.078099
H     1.454519    5.008169    -0.813507
O     2.411092    -0.087559    0.272725
C     3.150297    0.313866    1.394597
C     4.454378    0.429867    1.064559
C     4.574178    0.085453    -0.329436
C     3.336340    -0.220464    -0.772602
H     2.578958    0.441508    2.299280
H     5.256703    0.716828    1.730511
H     2.937832    -0.552925    -1.717687
H     5.483137    0.063916    -0.915186
O     0.088535    -2.282271    0.031345
C     1.201218    -3.138339    0.058440
C     0.793306    -4.412317    -0.115893
C     -0.640909    -4.388823    -0.263624
C     -1.034263    -3.101851    -0.172313
H     2.149182    -2.650389    0.214424
H     1.431302    -5.285241    -0.138172
H     -1.978015    -2.583678    -0.207348
H     -1.289441    -5.240001    -0.420719
O     -2.245015    -0.095917    -0.031373
C     -2.940148    -0.146046    -1.244866
C     -4.232637    0.191977    -1.047469
C     -4.385782    0.474564    0.356359
C     -3.179746    0.290366    0.937038
H     -2.371901    -0.463735    -2.104169
H     -5.004811    0.229371    -1.803380
H     -2.815367    0.357049    1.948774
H     -5.295620    0.768899    0.861575
C     -0.513623    -0.188242    5.196706
C     -0.498202    -1.369842    4.454455
C     -0.324133    -1.299543    3.077755
N     -0.167172    -0.126212    2.415046
C     -0.178221    1.016840    3.147933
C     -0.349013    1.025953    4.526385
H     -0.648611    -0.212591    6.273928
H     -0.620279    -2.337704    4.929085
H     -0.308256    -2.204755    2.483101
H     -0.040843    1.940308    2.597369
H     -0.351062    1.969971    5.060523
