50

Mn     0.003723    -0.013159    0.162721
C     0.036311    -0.043197    -1.819407
O     0.052323    -0.056104    -2.952840
O     0.048700    2.122499    0.089931
C     -1.009796    2.906478    -0.401687
C     -0.542217    4.117616    -0.765479
C     0.877225    4.124563    -0.514755
C     1.206023    2.917821    -0.010391
H     -1.978245    2.437294    -0.377401
H     -1.133452    4.932562    -1.160568
H     2.115803    2.453688    0.329732
H     1.558853    4.946402    -0.687185
O     2.170253    -0.031611    0.257445
C     2.957583    0.127015    1.411512
C     4.261394    -0.010206    1.090761
C     4.332394    -0.271452    -0.324833
C     3.068673    -0.279684    -0.794655
H     2.413030    0.322463    2.317788
H     5.094542    0.065654    1.776588
H     2.631777    -0.433107    -1.767400
H     5.227266    -0.429264    -0.911234
O     0.042462    -2.145289    0.103469
C     1.170052    -2.963222    0.289088
C     0.851530    -4.238263    -0.014821
C     -0.533108    -4.254537    -0.415713
C     -0.990743    -2.988422    -0.338017
H     2.054090    -2.457590    0.636886
H     1.519195    -5.087745    0.036146
H     -1.942404    -2.509593    -0.496227
H     -1.108751    -5.118051    -0.719819
O     -2.173994    0.015559    0.111683
C     -3.001110    -0.184673    -1.010153
C     -4.282746    0.081392    -0.685707
C     -4.300071    0.476247    0.699675
C     -3.029231    0.429070    1.148314
H     -2.511494    -0.516985    -1.910056
H     -5.133187    0.006587    -1.349728
H     -2.554006    0.625274    2.092623
H     -5.168146    0.754933    1.281839
C     -0.294403    0.022843    5.042954
C     -0.376413    -1.171987    4.328750
C     -0.277817    -1.143670    2.941672
N     -0.099688    0.003017    2.241220
C     -0.019524    1.161341    2.946195
C     -0.112019    1.209876    4.331270
H     -0.367601    0.031298    6.126050
H     -0.511691    -2.123021    4.832523
H     -0.336479    -2.059575    2.370143
H     0.130311    2.066902    2.374578
H     -0.036525    2.167466    4.835667
