25

Mn     -0.082619    0.037533    -0.104117
N     0.284882    2.287904    0.240861
H     0.329579    2.731458    -0.682775
P     0.459656    3.405868    1.382405
H     0.355709    2.529592    2.512570
N     2.161068    -0.301243    0.239818
H     2.597391    0.619312    0.355858
P     3.277799    -1.448011    0.379212
H     2.411406    -2.572404    0.177609
N     -0.486902    -2.208706    -0.453384
H     -0.623714    -2.639156    0.467400
P     -0.631457    -3.328201    -1.597763
H     -0.402964    -2.468682    -2.722460
N     -2.347044    0.376626    -0.461462
H     -2.778618    -0.546996    -0.575060
P     -3.473400    1.516630    -0.592731
H     -2.611168    2.645507    -0.397142
N     -0.632973    -0.339360    2.119785
H     -1.627077    -0.129768    2.261721
P     0.035486    -0.722520    3.529816
H     1.366554    -0.948547    3.046267
N     0.237549    0.423267    -2.359998
H     -0.683018    0.475460    -2.808545
P     1.386657    0.606055    -3.469001
H     2.510621    0.491274    -2.586384
