39

Mn     0.001057    -0.000958    -0.300931
O     0.000241    -0.002185    2.073620
H     0.760145    0.149491    2.659149
H     -0.765521    -0.123194    2.658669
C     -0.004031    2.336811    -0.025305
N     -0.000137    3.481546    0.180565
C     0.006301    4.889979    0.430569
H     0.843083    5.344684    -0.105167
H     0.115754    5.062784    1.504006
H     -0.935009    5.320368    0.080514
C     2.338214    0.007334    -0.077002
N     3.499440    0.003628    -0.014342
C     4.928541    -0.004953    0.055292
H     5.310125    -0.831442    -0.549074
H     5.236267    -0.134334    1.095939
H     5.311785    0.943363    -0.329184
C     0.005153    -2.336150    -0.024614
N     0.000897    -3.480696    0.181971
C     -0.005860    -4.889188    0.431959
H     -0.842888    -5.343376    -0.103951
H     -0.115318    -5.062259    1.505419
H     0.935485    -5.319517    0.081729
C     -2.336737    -0.007695    -0.074882
N     -3.497988    -0.005636    -0.013631
C     -4.927339    0.000783    0.051299
H     -5.324396    -0.613850    -0.760204
H     -5.284952    1.028018    -0.052407
H     -5.245344    -0.406756    1.014156
C     -0.000800    -0.000246    -5.343348
C     -0.037336    1.199292    -4.631613
C     -0.039852    1.154119    -3.242501
N     -0.000976    -0.000365    -2.542174
C     0.038013    -1.154774    -3.242611
C     0.036710    -1.199803    -4.631694
H     -0.001098    -0.000368    -6.429008
H     -0.064178    2.156664    -5.141024
H     -0.073751    2.065989    -2.656407
H     0.072027    -2.066504    -2.656326
H     0.064523    -2.157246    -5.140876
