61

Mn     -0.001206    0.010460    -0.003047
N     0.184463    2.054164    -0.088319
N     2.042117    0.190654    0.074632
C     -0.821063    2.942330    -0.192971
H     -1.818691    2.519248    -0.195494
C     -0.613117    4.314012    -0.287699
H     -1.460284    4.986656    -0.366440
C     0.697759    4.790079    -0.283656
H     0.903620    5.852909    -0.361664
C     1.745544    3.879158    -0.178434
H     2.768632    4.235440    -0.179567
C     3.873943    1.744970    0.135160
H     4.234697    2.766416    0.122047
C     4.781342    0.694532    0.244608
H     5.845585    0.896744    0.312246
C     4.299939    -0.614225    0.266714
H     4.969428    -1.463456    0.349914
C     2.926796    -0.817404    0.183824
H     2.499167    -1.812955    0.199407
C     1.465637    2.512058    -0.076743
C     2.504933    1.469774    0.047143
N     -0.089269    -2.032501    0.180068
N     0.087804    -0.173193    2.039925
C     -0.203681    -2.917957    -0.826745
H     -0.216088    -2.491921    -1.823039
C     -0.295696    -4.290236    -0.621432
H     -0.382847    -4.960687    -1.469514
C     -0.277554    -4.769704    0.688074
H     -0.352410    -5.833147    0.891939
C     -0.162501    -3.861484    1.737244
H     -0.152115    -4.220635    2.759291
C     0.166344    -1.731200    3.868053
H     0.159442    -2.753504    4.226556
C     0.280227    -0.682332    4.776744
H     0.356945    -0.886596    5.839978
C     0.294817    0.627469    4.297934
H     0.380806    1.475569    4.968504
C     0.201008    0.833332    2.925865
H     0.211056    1.829901    2.500391
C     -0.065092    -2.493570    1.459983
C     0.066559    -1.453402    2.500418
N     -2.044772    -0.068661    -0.182684
N     -0.188515    0.097295    -2.047019
C     -2.928627    -0.179202    0.825953
H     -2.500326    -0.196202    1.821182
C     -4.301964    -0.261619    0.623771
H     -4.970994    -0.345990    1.473253
C     -4.784371    -0.237362    -0.684550
H     -5.848783    -0.304376    -0.886076
C     -3.877811    -0.126619    -1.735599
H     -4.239445    -0.111844    -2.756711
C     -1.750666    0.188171    -3.871100
H     -2.773926    0.188546    -4.226873
C     -0.703451    0.294518    -4.782562
H     -0.909876    0.373127    -5.845240
C     0.607666    0.298841    -4.307183
H     1.454657    0.378451    -4.979941
C     0.816426    0.202985    -2.935681
H     1.814359    0.205411    -2.513256
C     -2.508561    -0.039402    -1.461420
C     -1.469975    0.085722    -2.504228
