33

Mn     0.028810    0.027877    0.486082
C     -0.358720    2.355291    0.823619
N     -0.497270    3.503363    0.681080
C     -0.656055    4.899716    0.445733
H     0.128783    5.240624    -0.234257
H     -0.585441    5.441002    1.392456
H     -1.633858    5.079897    -0.007973
C     2.355892    0.372737    0.845378
N     3.489907    0.588606    0.687238
C     4.862991    0.861624    0.421876
H     4.971937    1.157249    -0.624873
H     5.455744    -0.036257    0.613742
H     5.205693    1.670881    1.071478
C     0.415894    -2.292528    0.124798
N     0.644484    -3.320589    -0.373698
C     0.929450    -4.542472    -1.049278
H     1.022569    -4.344335    -2.120237
H     0.117751    -5.253076    -0.874586
H     1.866020    -4.957798    -0.668927
C     -2.296275    -0.320395    0.098649
N     -3.344692    -0.442242    -0.394910
C     -4.597500    -0.580912    -1.059518
H     -5.274265    0.210814    -0.728490
H     -5.030757    -1.555201    -0.819996
H     -4.440155    -0.502409    -2.138387
C     -0.304980    -0.357046    2.812871
N     -0.467762    -0.544715    3.951038
C     -0.666467    -0.774567    5.343905
H     0.297755    -0.742723    5.857351
H     -1.125513    -1.755944    5.487187
H     -1.322909    -0.000268    5.748730
C     0.324750    0.373041    -1.588517
N     0.495756    0.554195    -2.731838
