23

Mn     -0.000317    0.000569    -0.108556
C     -0.465888    1.933519    -0.035758
O     -0.753737    3.022834    0.046131
C     1.921173    0.506509    -0.086732
O     3.016525    0.781658    -0.064675
C     0.465245    -1.933092    -0.035336
O     0.753964    -3.022230    0.045434
C     -1.922157    -0.507795    -0.085145
O     -3.017968    -0.781460    -0.064592
O     0.001628    0.000080    1.971310
H     0.451611    0.640875    2.553070
H     -0.451149    -0.639861    2.551759
C     0.000215    -0.000016    -4.928858
C     0.544419    1.071570    -4.215728
C     0.531227    1.037380    -2.829987
N     0.000269    0.000364    -2.124815
C     -0.530796    -1.036598    -2.829934
C     -0.545656    -1.070731    -4.215693
H     0.002615    -0.001093    -6.014776
H     0.976747    1.928244    -4.722112
H     0.959874    1.855587    -2.263239
H     -0.956259    -1.856764    -2.263590
H     -0.981335    -1.926190    -4.721593
