42

Mn     -0.000055    0.072047    0.139211
C     -0.003545    -0.032000    -2.363339
O     -0.002990    -0.061268    -3.490829
O     -0.339523    0.203289    2.276675
H     0.284104    0.390205    3.000533
H     -1.234119    0.412943    2.600605
O     0.009418    2.295276    -0.110688
C     -0.729185    3.024217    -1.057588
C     -0.290928    4.300028    -1.088035
C     0.777887    4.409684    -0.127075
C     0.933536    3.195477    0.440968
H     -1.519587    2.485422    -1.555985
H     -0.680914    5.090617    -1.714679
H     1.593218    2.788980    1.191052
H     1.349117    5.297946    0.106392
O     2.209766    0.008553    0.142459
C     2.990007    -0.989161    0.750946
C     4.275580    -0.851046    0.367631
C     4.339282    0.276025    -0.529723
C     3.089788    0.769945    -0.648140
H     2.456173    -1.680467    1.383528
H     5.102620    -1.472828    0.682525
H     2.649519    1.608220    -1.164322
H     5.223733    0.663280    -1.017104
O     0.021830    -2.164283    0.183223
C     -0.486970    -2.959167    1.223419
C     -0.296568    -4.262017    0.929584
C     0.367781    -4.321879    -0.348781
C     0.547807    -3.052111    -0.767285
H     -0.919885    -2.417586    2.048088
H     -0.588292    -5.101421    1.545898
H     1.013358    -2.600895    -1.629011
H     0.671990    -5.214152    -0.878834
O     -2.246485    0.058867    0.058852
C     -3.063111    -1.016881    -0.319283
C     -4.354356    -0.716835    -0.068231
C     -4.385429    0.609167    0.494287
C     -3.110664    1.049492    0.558405
H     -2.546430    -1.876482    -0.714495
H     -5.204344    -1.357405    -0.259074
H     -2.639712    1.978188    0.840312
H     -5.264103    1.159095    0.803052
