23

Mn     0.013573    0.016775    0.145982
P     -0.383596    2.360758    0.255146
H     -0.697792    3.023968    1.465613
H     0.659139    3.207778    -0.175581
H     -1.421950    2.881686    -0.544168
P     2.361797    0.346907    0.367637
H     3.002102    0.386154    1.629170
H     3.226796    -0.561881    -0.277088
H     2.881502    1.545193    -0.164615
P     0.466277    -2.272545    -0.323006
H     1.706954    -2.592659    -0.912804
H     0.445414    -3.268248    0.682469
H     -0.377234    -2.909320    -1.257705
P     -2.288752    -0.260487    -0.397854
H     -2.582115    -1.199802    -1.408247
H     -3.234872    -0.688653    0.563367
H     -3.006855    0.836228    -0.920729
P     -0.345115    -0.347903    2.517498
H     0.359797    0.495127    3.405286
H     -1.630206    -0.194232    3.084988
H     -0.010385    -1.583065    3.116834
C     0.317361    0.323963    -1.752900
N     0.498593    0.505047    -2.896477
