21

Mn     -0.128576    -0.189051    -0.029228
S     0.202197    2.355118    0.142363
H     -0.424258    2.796906    1.253932
H     1.441733    2.612807    0.613288
S     2.370964    -0.547180    0.342475
H     3.073855    -0.105965    -0.723301
H     2.729279    -1.838366    0.174700
S     -0.608633    -2.662755    -0.479548
H     0.447465    -3.447571    -0.177923
H     -1.397646    -3.174981    0.489760
S     -2.642265    0.341374    -0.089792
H     -3.324109    -0.725743    -0.559353
H     -2.905836    1.113935    -1.165306
N     -0.350520    -0.390068    2.055431
H     -1.227651    -0.007003    2.419577
H     -0.320132    -1.360136    2.379653
H     0.392231    0.090818    2.571624
N     0.089741    0.018305    -2.110554
H     -0.663684    -0.449511    -2.623275
H     0.953926    -0.381490    -2.485605
H     0.075911    0.991986    -2.428137
