17

Mn     0.013055    0.006655    -0.151537
C     0.013110    2.450258    0.057946
O     0.012714    3.575094    0.104197
C     2.456723    0.008343    0.054557
O     3.581624    0.008923    0.099068
C     0.015653    -2.439270    0.054146
O     0.016518    -3.564222    0.098212
C     -2.432789    0.005938    0.057793
O     -3.557670    0.005193    0.103732
C     0.008689    -0.000643    2.351956
O     0.007815    -0.003258    3.478091
C     -0.013357    -0.005580    -3.407971
N     -0.002283    -0.001621    -2.244906
C     -0.027825    -0.010515    -4.857024
H     1.000286    -0.045058    -5.237411
H     -0.518728    0.898684    -5.224842
H     -0.576472    -0.888822    -5.218181
