37

Mn     -0.123708    -0.048864    -0.047741
P     -0.502250    2.327503    0.404530
H     0.453628    2.836213    1.335901
P     0.270668    3.720160    -1.121307
H     -0.589402    3.783915    -2.226705
H     0.313221    5.052985    -0.672435
H     1.531923    3.560665    -1.735590
P     2.174799    0.462739    0.339646
H     2.649419    1.504512    -0.515367
P     3.743503    -0.850081    -0.499501
H     3.890435    -2.023869    0.257320
H     3.712227    -1.368391    -1.816156
H     5.031835    -0.287500    -0.441726
P     0.026944    -2.399012    -0.579877
H     1.383156    -2.854260    -0.556158
P     -0.453038    -3.792312    1.048902
H     -1.828007    -3.759748    1.326143
H     -0.233480    -5.139955    0.707123
H     0.109478    -3.711517    2.341259
P     -2.491264    -0.428748    -0.429517
H     -3.029239    -1.442231    0.420769
P     -3.871470    1.026077    0.468862
H     -3.974735    2.189202    -0.307541
H     -5.193606    0.547153    0.501578
H     -3.703208    1.555236    1.768126
P     -0.566980    -0.393839    2.302719
H     -1.590461    0.478207    2.781220
P     0.850949    0.523853    3.733953
H     2.021983    -0.238606    3.852664
H     1.366808    1.830221    3.585924
H     0.353562    0.542936    5.050089
P     0.265843    0.351176    -2.404182
H     1.339668    -0.467346    -2.860074
P     -1.108750    -0.709969    -3.773110
H     -2.305121    -0.001949    -3.956802
H     -0.601776    -0.821336    -5.080688
H     -1.557474    -2.016366    -3.489700
