21

Mn     -0.215988    -0.188557    0.002549
S     0.110218    2.623761    -0.296849
H     -0.870008    3.273234    0.365766
H     1.092484    3.033562    0.533200
S     2.636045    -0.190158    -0.219347
H     3.011874    -0.103319    -1.512362
H     3.101578    -1.446322    -0.054565
S     -0.142068    -3.015264    0.283087
H     -0.077904    -3.592592    -0.934619
H     -1.370480    -3.496782    0.566359
S     -2.966844    -0.119496    0.669871
H     -3.647395    -0.847432    -0.240269
H     -3.513956    1.057161    0.299109
N     0.200138    -0.184491    2.198454
H     -0.657423    -0.186933    2.758858
H     0.733230    -0.997295    2.522017
H     0.730337    0.630922    2.517693
N     -0.510971    -0.172313    -2.209411
H     -0.081103    0.639331    -2.662692
H     -1.502308    -0.123394    -2.459708
H     -0.146399    -0.988837    -2.707048
