31

Mn     0.094149    0.020592    -0.023635
N     0.895100    2.009210    0.187335
H     0.510995    2.633464    -0.527837
H     0.564608    2.437056    1.059354
P     2.719609    2.301234    0.177859
H     2.933198    1.574112    1.381173
P     3.361377    0.623884    -1.147578
H     2.752831    1.181136    -2.305547
N     1.991856    -0.585485    -0.859207
H     2.407254    -1.351936    -0.322214
H     1.825696    -1.008163    -1.777832
N     -0.708253    -1.970487    -0.210527
H     -0.400559    -2.397130    -1.091053
H     -1.727557    -1.945435    -0.314529
P     -0.391394    -3.261424    1.076365
H     0.964916    -3.456745    0.694008
P     0.123278    -1.961137    2.817949
H     -1.177335    -1.391198    2.901474
N     0.832468    -0.511575    1.914325
H     1.843200    -0.680128    1.889722
H     0.753755    0.273241    2.570871
N     -1.815224    0.641617    0.728261
H     -1.700166    1.109168    1.634868
H     -2.405289    -0.159179    0.977195
P     -2.913946    1.758994    -0.251648
H     -1.980887    2.832808    -0.260794
P     -2.372599    1.062949    -2.301722
H     -2.920925    -0.234887    -2.106225
N     -0.630841    0.509972    -2.005106
H     -0.046264    1.231751    -2.437221
H     -0.507055    -0.292346    -2.631659
