32

Mn     0.061570    0.063518    0.371832
C     -0.296570    1.982484    0.559279
N     -0.493987    3.131172    0.606553
C     -0.716699    4.536084    0.566047
H     0.182374    5.036329    0.196269
H     -0.949873    4.901565    1.569636
H     -1.552922    4.753554    -0.103886
C     1.991674    0.299435    0.620951
N     3.145217    0.453499    0.700083
C     4.553657    0.655979    0.690697
H     4.880589    0.855958    -0.333430
H     5.057385    -0.238997    1.065595
H     4.807816    1.508023    1.326828
C     0.441028    -1.829278    0.030285
N     0.671197    -2.939475    -0.243756
C     0.964569    -4.261319    -0.681358
H     1.033757    -4.270676    -1.772626
H     0.170113    -4.940588    -0.360949
H     1.915952    -4.589292    -0.253985
C     -1.845315    -0.145560    -0.037372
N     -2.962892    -0.260540    -0.351157
C     -4.296077    -0.378532    -0.834649
H     -4.973211    0.191685    -0.193101
H     -4.595915    -1.429850    -0.834519
H     -4.343737    0.012723    -1.854609
C     -0.230140    -0.251420    2.277392
N     -0.403578    -0.438050    3.416357
C     -0.611752    -0.666553    4.805847
H     0.167024    -1.329436    5.192325
H     -1.591411    -1.128414    4.955213
H     -0.577198    0.287048    5.339520
Cl     0.416529    0.434457    -1.897391
