34

Mn     0.064163    0.084749    0.124997
C     0.562539    3.419442    0.486969
N     0.401808    2.275859    0.398336
C     0.764019    4.857566    0.594328
H     0.890443    5.289472    -0.403868
H     1.658106    5.066288    1.190534
H     -0.103022    5.320479    1.076515
C     3.390493    -0.438308    0.613352
N     2.263317    -0.265507    0.409741
C     4.807922    -0.655677    0.868208
H     5.273054    0.275683    1.207006
H     5.305335    -0.990039    -0.048058
H     4.934203    -1.420084    1.641700
C     -0.428970    -3.240533    -0.407923
N     -0.257214    -2.104342    -0.261798
C     -0.644281    -4.669028    -0.593796
H     0.181449    -5.231698    -0.146426
H     -0.697532    -4.902966    -1.662052
H     -1.582088    -4.970118    -0.115815
C     -3.226122    0.673000    -0.487867
N     -2.107134    0.454254    -0.283371
C     -4.632763    0.947097    -0.746267
H     -5.253765    0.165909    -0.296098
H     -4.815326    0.971451    -1.825578
H     -4.908881    1.915343    -0.316283
C     -0.492361    -0.375008    3.449145
N     -0.299004    -0.233572    2.315846
C     -0.735099    -0.552643    4.874375
H     -1.714755    -1.015535    5.030801
H     -0.714254    0.418417    5.379406
H     0.037246    -1.196724    5.306920
S     0.475000    0.554808    -2.612132
H     -0.119089    -0.511776    -3.186325
H     1.721769    0.081944    -2.817935
