31

Mn     -0.076828    -0.013495    -0.207486
N     -0.043225    2.330041    0.092655
H     -0.826311    2.795620    -0.377705
H     -0.199359    2.551068    1.081103
P     1.468748    3.267203    -0.386103
H     1.430774    2.802707    -1.735903
P     2.845399    1.689318    0.407620
H     3.987584    2.121730    -0.318507
N     2.289117    0.289045    -0.579481
H     2.507731    0.390807    -1.573368
H     2.778631    -0.552349    -0.265056
N     0.297888    -2.313388    -0.254051
H     0.824907    -2.572453    -1.094764
H     -0.597282    -2.795338    -0.377601
P     1.121884    -3.171783    1.148188
H     2.365867    -2.507912    0.954037
P     0.523483    -1.885145    2.888213
H     -0.857619    -2.209258    2.775100
N     0.335459    -0.233097    2.112358
H     1.196685    0.279677    2.331086
H     -0.385091    0.248669    2.659499
N     -2.378611    -0.229560    0.217344
H     -2.535538    -1.013379    0.855837
H     -2.696512    0.589952    0.741786
P     -3.550902    -0.465022    -1.174818
H     -3.733451    0.924572    -1.405480
P     -2.200450    -0.743673    -2.949758
H     -1.702939    -2.002097    -2.509473
N     -0.690546    0.166097    -2.417781
H     0.056231    -0.137390    -3.051970
H     -0.841941    1.144517    -2.682266
