21

Mn     -0.024524    -0.166904    0.031072
N     0.264500    1.924652    -0.249136
H     -0.496737    2.470077    0.153879
H     0.313469    2.120917    -1.248219
H     1.114763    2.276546    0.190054
N     2.077865    -0.377341    0.336832
H     2.275410    -0.311117    1.334727
H     2.631128    0.323553    -0.155592
H     2.418969    -1.279429    0.007058
N     -0.323824    -2.257100    0.326995
H     -0.309038    -2.445945    1.328815
H     0.385991    -2.829822    -0.128271
H     -1.218040    -2.580604    -0.040474
N     -2.126231    0.025674    -0.298968
H     -2.444752    0.992287    -0.240797
H     -2.695198    -0.498237    0.366037
H     -2.329695    -0.293835    -1.245550
N     -0.295762    0.131495    3.210183
C     -0.233180    0.066279    2.039696
N     0.287162    -0.504767    -3.143123
C     0.198164    -0.409211    -1.976599
