39

Mn     0.031104    -0.121241    -0.010128
N     0.248757    1.995878    0.234561
H     -0.170725    2.317820    1.110370
H     -0.215173    2.521931    -0.509282
H     1.206540    2.351567    0.261006
N     2.144825    -0.431224    -0.245802
H     2.746679    0.369682    -0.043885
H     2.360431    -0.679659    -1.214280
H     2.514605    -1.191281    0.329637
N     -0.185010    -2.239038    -0.247027
H     0.287623    -2.761862    0.493732
H     0.226630    -2.561832    -1.126230
H     -1.141531    -2.598550    -0.262450
N     -2.084183    0.186064    0.221895
H     -2.304063    0.432517    1.189932
H     -2.683510    -0.615759    0.015430
H     -2.453129    0.946864    -0.353169
C     0.509431    -0.828833    4.856522
C     -0.512475    -1.454743    4.141441
C     -0.602574    -1.238032    2.770876
N     0.250385    -0.445413    2.080509
C     1.232599    0.154384    2.790724
C     1.399368    -0.009065    4.161589
H     0.607750    -0.973589    5.928023
H     -1.232558    -2.100575    4.633072
H     -1.393258    -1.713050    2.197826
H     1.911067    0.792392    2.233586
H     2.210508    0.501842    4.669637
C     -0.497651    0.653210    -4.861107
C     0.519152    1.285240    -4.144147
C     0.633363    1.035928    -2.781115
N     -0.193673    0.209263    -2.099320
C     -1.168509    -0.399630    -2.812093
C     -1.356031    -0.207918    -4.176647
H     -0.616178    0.825111    -5.926383
H     1.216714    1.960903    -4.628069
H     1.420428    1.514897    -2.206555
H     -1.823033    -1.068156    -2.261861
H     -2.160171    -0.726489    -4.687895
