31

Mn     -0.001427    -0.001361    -0.000807
O     -0.002872    -0.000140    2.060658
H     0.553221    -0.556156    2.629176
H     -0.545530    0.571247    2.626907
O     -0.003201    -0.001749    -2.061236
H     -0.541366    0.574607    -2.626870
H     0.558534    -0.553345    -2.628638
C     -0.056777    2.008824    -0.000121
N     -0.057948    3.171883    0.000669
C     -0.037109    4.603302    0.000974
H     0.798154    4.948514    -0.613108
H     0.090606    4.956200    1.027296
H     -0.978969    4.979887    -0.405151
C     2.011897    -0.017202    -0.001559
N     3.174818    -0.009494    -0.001601
C     4.606155    -0.000670    -0.001556
H     4.969219    -0.830443    -0.612632
H     4.962884    -0.114817    1.025110
H     4.960591    0.947465    -0.412510
C     0.054359    -2.010758    0.000613
N     0.056305    -3.173746    0.001211
C     0.036525    -4.605071    0.001156
H     -0.798490    -4.950743    -0.612988
H     -0.091056    -4.958177    1.027411
H     0.978692    -4.980850    -0.405054
C     -2.014109    0.013529    -0.002941
N     -3.176936    0.006290    -0.001728
C     -4.608126    -0.001544    -0.002954
H     -4.959615    -0.618305    -0.833414
H     -4.973724    1.021523    -0.118419
H     -4.964707    -0.418704    0.942101
