33

Mn     0.040172    0.085543    0.108969
O     0.213773    2.129766    0.367128
H     0.797055    2.695494    -0.169277
H     0.296910    2.438806    1.287427
O     2.165593    -0.128396    0.064178
H     2.721584    0.183903    -0.672017
H     2.531579    -0.990220    0.332783
O     -0.168511    -1.950723    -0.153966
H     -0.335300    -2.340350    -1.030063
H     -0.615698    -2.506985    0.507501
O     -2.064346    0.341231    0.028888
H     -2.404866    1.215868    0.288299
H     -2.570679    0.076231    -0.759809
O     0.106553    0.220680    -2.024246
C     0.828151    -0.605712    -2.893903
C     0.514416    -0.301722    -4.173054
C     -0.444409    0.771238    -4.132681
C     -0.663791    1.061622    -2.831380
H     1.496214    -1.311709    -2.425754
H     0.917627    -0.776072    -5.057439
H     -1.265754    1.788836    -2.309889
H     -0.902915    1.261970    -4.980200
C     -0.154413    -0.422424    4.931115
C     1.012866    0.015392    4.303694
C     1.027888    0.142430    2.919789
N     -0.047962    -0.139184    2.143126
C     -1.174998    -0.571683    2.761280
C     -1.263824    -0.725087    4.139746
H     -0.196981    -0.525883    6.011003
H     1.905152    0.254427    4.873252
H     1.919958    0.472623    2.399405
H     -2.026358    -0.784427    2.124746
H     -2.192841    -1.073507    4.578836
