26

Mn     -0.016235    0.001863    0.151320
C     0.002692    0.008449    -2.493443
O     0.011485    0.017999    -3.622037
O     -0.407708    2.162546    0.015594
H     0.195101    2.913598    -0.121476
H     -1.302135    2.465085    -0.218720
O     2.185377    0.136698    -0.142063
H     2.690324    0.426149    -0.922072
H     2.768111    0.272866    0.626002
O     0.363071    -2.161073    0.022838
H     1.249635    -2.479326    -0.219637
H     -0.251203    -2.907697    -0.086809
O     -2.223390    -0.122220    -0.141165
H     -2.807893    -0.278956    0.621675
H     -2.728506    -0.389941    -0.928999
C     0.034922    -0.005378    5.142698
C     -0.341497    1.136567    4.433553
C     -0.338429    1.098223    3.045518
N     0.010689    -0.005808    2.338262
C     0.372394    -1.109852    3.039717
C     0.399350    -1.147725    4.427694
H     0.043136    -0.005347    6.228376
H     -0.632906    2.047759    4.944743
H     -0.619062    1.969698    2.465868
H     0.643401    -1.981697    2.456094
H     0.697377    -2.059695    4.934211
