12

Mn     0.020450    0.020419    0.091813
C     -0.038468    1.956209    0.307580
O     -0.069244    3.084946    0.388131
C     1.956250    -0.038309    0.307519
O     3.084996    -0.068965    0.387978
C     0.116197    -1.886963    -0.285131
O     0.186482    -2.987089    -0.542984
C     -1.886936    0.115977    -0.285136
O     -2.987080    0.186139    -0.542946
C     -0.286986    -0.286840    1.982316
O     -0.468846    -0.468548    3.085443
Cl     0.373183    0.373023    -2.116050
