34

Mn     -0.056207    0.038124    0.195139
C     0.321967    2.329497    0.253297
N     0.519518    3.473872    0.303934
C     0.763412    4.882155    0.365907
H     1.584498    5.132883    -0.310103
H     1.030596    5.153757    1.389978
H     -0.141358    5.415395    0.064308
C     2.208687    -0.302502    -0.232341
N     3.336206    -0.479372    -0.452208
C     4.722782    -0.699667    -0.725526
H     4.817773    -1.272086    -1.651439
H     5.166216    -1.256652    0.103319
H     5.223413    0.265568    -0.833018
C     -0.432550    -2.224051    -0.201657
N     -0.600398    -3.359310    -0.385958
C     -0.801965    -4.757245    -0.612693
H     -1.790533    -4.909236    -1.052644
H     -0.735042    -5.286688    0.340775
H     -0.031770    -5.122835    -1.296105
C     -2.334012    0.411099    0.476673
N     -3.468641    0.598465    0.646322
C     -4.863873    0.832728    0.858835
H     -5.007089    1.866408    1.182723
H     -5.227642    0.148678    1.629291
H     -5.402449    0.658898    -0.075843
C     0.257858    -0.263684    2.467440
N     0.421629    -0.410763    3.608360
C     0.621414    -0.588682    5.013263
H     1.454988    -1.277167    5.171454
H     -0.289238    -1.000841    5.454529
H     0.848356    0.379336    5.466438
S     -0.272241    0.153920    -2.696380
H     -1.586080    0.009948    -2.967303
H     -0.252842    1.458408    -3.040153
