27

Mn     -0.000029    0.000011    -0.011167
C     0.053513    2.450713    -0.190949
O     0.124421    3.566740    -0.324077
C     2.443030    0.086304    0.213327
O     3.553482    0.160723    0.385367
C     -0.053504    -2.450773    -0.190880
O     -0.124388    -3.566780    -0.323838
C     -2.442972    -0.086360    0.213485
O     -3.553436    -0.160766    0.385704
O     -0.000081    0.000038    2.167309
C     -0.579066    0.966585    3.016462
C     -0.370408    0.618967    4.301030
C     0.370227    -0.619187    4.301336
C     0.578875    -0.966581    3.016676
H     -1.069134    1.794171    2.527685
H     -0.700740    1.171097    5.170617
H     1.068917    -1.794067    2.527707
H     0.700674    -1.171722    5.170932
O     -0.000043    0.000074    -2.184086
C     -1.027550    0.463025    -3.034481
C     -0.657872    0.296038    -4.318619
C     0.658124    -0.295800    -4.318936
C     1.027533    -0.462875    -3.034698
H     -1.905641    0.854794    -2.545345
H     -1.246231    0.558662    -5.187430
H     1.905500    -0.854686    -2.545372
H     1.246930    -0.558457    -5.187758
