25

Mn     -0.024080    0.069435    -0.054659
O     -0.389614    2.070533    -0.351458
H     -0.381001    2.631365    0.455538
S     -0.040224    2.984419    -1.778821
H     -1.305774    3.420288    -1.988168
O     2.064491    0.209008    -0.259851
H     2.501016    1.054676    -0.046377
S     2.960679    -0.550829    -1.545188
H     3.842788    -1.183562    -0.736751
O     0.102259    -1.997578    0.242221
H     0.305694    -2.491189    -0.581921
S     0.946066    -2.700531    1.586444
H     -0.055171    -3.531147    1.961624
O     -2.063316    -0.253289    0.195663
H     -2.270343    -1.202684    0.283000
S     -3.173048    0.646369    1.190302
H     -4.032988    0.948404    0.190596
O     0.298083    0.449125    1.950235
H     0.362989    -0.335496    2.535484
S     -0.100276    1.873814    2.854406
H     1.176247    2.206576    3.165769
O     -0.161951    -0.242946    -2.086448
H     -0.413321    0.546884    -2.610890
S     -0.614556    -1.701223    -2.900109
H     0.557980    -1.861565    -3.558854
