47

Mn     -0.233409    0.062374    -0.042327
N     0.071428    2.030148    0.250590
C     0.259464    3.157366    0.441383
C     0.493293    4.575647    0.687128
H     -0.103205    4.910363    1.542054
H     1.552364    4.750726    0.902597
H     0.213323    5.162661    -0.193642
N     1.755397    -0.273114    0.235012
C     2.887342    -0.477624    0.365481
C     4.311353    -0.742525    0.521956
H     4.659963    -0.352700    1.483711
H     4.496447    -1.820991    0.489216
H     4.872986    -0.255595    -0.281732
N     -0.514071    -1.913671    -0.331588
C     -0.648426    -3.047894    -0.524636
C     -0.806524    -4.476003    -0.772810
H     0.022092    -5.028578    -0.318131
H     -1.746926    -4.834216    -0.342046
H     -0.816209    -4.669098    -1.850373
N     -2.228423    0.383791    -0.314954
C     -3.366277    0.563320    -0.431615
C     -4.798196    0.794418    -0.568846
H     -5.028174    1.125938    -1.586468
H     -5.351101    -0.127461    -0.362554
H     -5.116871    1.566855    0.138770
C     -1.002738    -0.662134    4.744796
C     -1.816173    -1.277979    3.793917
C     -1.568508    -1.049346    2.445189
N     -0.575057    -0.248639    2.005093
C     0.200220    0.351748    2.933212
C     0.025163    0.168817    4.300260
H     -1.166114    -0.825590    5.805596
H     -2.631743    -1.930784    4.087171
H     -2.179715    -1.517528    1.683159
H     0.984714    0.998878    2.559737
H     0.684225    0.673368    4.998785
C     0.441463    0.677672    -4.854563
C     -0.351014    1.566870    -4.129071
C     -0.499506    1.376134    -2.759626
N     0.083074    0.357801    -2.092827
C     0.846558    -0.498835    -2.803640
C     1.053718    -0.373177    -4.172393
H     0.577662    0.800121    -5.924764
H     -0.850328    2.399882    -4.612920
H     -1.105433    2.051927    -2.167905
H     1.298747    -1.312118    -2.249238
H     1.679477    -1.092502    -4.689646
