43

Mn     -0.013237    -0.028615    0.000118
N     0.141506    2.143059    0.013145
H     -0.660327    2.466858    -0.530515
H     0.940013    2.414333    -0.564375
C     0.199870    2.977851    1.250236
H     -0.676326    2.778341    1.871328
H     1.102189    2.735346    1.816675
H     0.220004    4.046940    1.019369
N     2.155066    0.002239    -0.302714
H     2.550688    0.705053    0.325461
H     2.307814    0.395155    -1.233766
C     3.016267    -1.214442    -0.196851
H     2.883877    -1.670474    0.786970
H     2.726719    -1.934518    -0.965219
H     4.075605    -0.978200    -0.331350
N     -0.052306    -2.203521    -0.139214
H     0.515477    -2.528036    0.645236
H     0.496346    -2.482432    -0.954913
C     -1.296099    -3.028965    -0.156263
H     -1.880101    -2.834075    0.745414
H     -1.893286    -2.774233    -1.036100
H     -1.074697    -4.099514    -0.196820
N     -2.164260    -0.012782    0.283553
H     -2.343330    -0.236071    1.264605
H     -2.567921    -0.804651    -0.218205
C     -2.982487    1.191391    -0.050058
H     -2.681370    2.025977    0.586346
H     -2.828492    1.463930    -1.097769
H     -4.050878    1.013146    0.103009
N     0.250893    -0.045704    2.167067
H     -0.452728    0.591460    2.544322
H     1.130119    0.427704    2.382367
C     0.214398    -1.298252    2.977932
H     -0.709725    -1.842374    2.770872
H     1.067514    -1.927661    2.712306
H     0.266958    -1.093243    4.051095
N     -0.280531    -0.043685    -2.183132
H     -1.243253    -0.337762    -2.360561
H     0.279352    -0.817164    -2.547063
C     -0.019560    1.136636    -3.062069
H     -0.699230    1.949226    -2.796279
H     1.010113    1.479764    -2.930649
H     -0.168350    0.899045    -4.119346
