53

Mn     -0.036127    -0.003047    -0.224759
C     -0.254247    0.131643    2.478252
O     -0.316371    0.162084    3.607195
C     0.303601    -0.257098    -2.520103
N     0.532128    -0.384930    -3.652928
C     0.825015    -0.540630    -5.045156
H     0.395669    -1.481033    -5.398844
H     1.909166    -0.553405    -5.181517
H     0.391452    0.296451    -5.597390
C     -0.180094    5.080926    -0.212896
C     0.558373    4.403891    0.758922
C     0.579620    3.013638    0.734163
N     -0.087842    2.284296    -0.185104
C     -0.801920    2.948905    -1.118293
C     -0.872044    4.336966    -1.170179
H     -0.215254    6.166011    -0.224088
H     1.110863    4.939799    1.523698
H     1.153850    2.456695    1.468585
H     -1.336103    2.338136    -1.840407
H     -1.460162    4.820832    -1.943059
C     4.987020    0.244626    0.597073
C     4.208338    -0.636184    1.349008
C     2.838994    -0.689780    1.110185
N     2.222959    0.077166    0.186093
C     2.985627    0.926855    -0.534170
C     4.361026    1.039910    -0.363939
H     6.058794    0.310434    0.757061
H     4.650192    -1.272515    2.108409
H     2.205332    -1.372521    1.668031
H     2.464597    1.536882    -1.265994
H     4.925469    1.740118    -0.970672
C     -0.102860    -5.046859    0.526552
C     -1.063350    -4.236911    1.133679
C     -1.010803    -2.863184    0.922453
N     -0.065891    -2.270336    0.162132
C     0.860712    -3.063218    -0.417093
C     0.876993    -4.445661    -0.265220
H     -0.117545    -6.123358    0.667287
H     -1.843157    -4.658231    1.759491
H     -1.751109    -2.206689    1.368327
H     1.614851    -2.560618    -1.015352
H     1.643996    -5.034876    -0.756483
C     -5.112957    0.060925    -0.446182
C     -4.438202    0.904347    0.437703
C     -3.049379    0.853218    0.483108
N     -2.319512    0.011991    -0.279844
C     -2.982138    -0.805384    -1.125279
C     -4.367946    -0.809356    -1.243826
H     -6.196620    0.081797    -0.512212
H     -4.975562    1.594735    1.078773
H     -2.491091    1.512027    1.141263
H     -2.370988    -1.479804    -1.717703
H     -4.848855    -1.483308    -1.945036
