39

Mn     0.000062    -0.000051    0.000040
P     -0.502490    2.376934    -0.309015
H     -1.091488    3.072577    0.767942
H     -1.411795    2.724818    -1.329969
H     0.521321    3.302035    -0.617241
P     2.412255    0.175681    -0.402167
H     3.276678    -0.278195    0.616132
H     3.020887    1.427398    -0.650168
H     2.949899    -0.538131    -1.493781
P     0.502177    -2.376985    0.307187
H     1.120905    -3.065526    -0.757650
H     -0.526529    -3.306726    0.583525
H     1.386109    -2.727152    1.349335
P     -2.411588    -0.176392    0.403791
H     -2.952367    0.554903    1.482246
H     -3.017112    -1.425165    0.673294
H     -3.276046    0.257306    -0.623200
C     0.758338    0.756425    4.819372
C     -0.050946    -0.289705    4.376730
C     -0.237153    -0.468594    3.010690
N     0.328793    0.324285    2.069993
C     1.110205    1.335982    2.516605
C     1.348494    1.583298    3.863761
H     0.923991    0.922863    5.879126
H     -0.536107    -0.963810    5.074772
H     -0.865660    -1.279261    2.655579
H     1.562649    1.973657    1.763772
H     1.986788    2.412632    4.149794
C     -0.758460    -0.755968    -4.819457
C     0.049503    0.291092    -4.376573
C     0.235963    0.469573    -3.010511
N     -0.328783    -0.324364    -2.070007
C     -1.109093    -1.336794    -2.516764
C     -1.347238    -1.583991    -3.863996
H     -0.924122    -0.922212    -5.879241
H     0.533497    0.966170    -5.074484
H     0.863801    1.280642    -2.655154
H     -1.560870    -1.975159    -1.764115
H     -1.984466    -2.414084    -4.150201
