52

Mn     0.041356    -0.013681    0.259979
C     -0.685041    4.801835    -0.457126
C     0.076433    4.025723    -1.328389
C     0.247830    2.671078    -1.058638
N     -0.280621    2.068659    0.026423
C     -1.030724    2.823328    0.852375
C     -1.255676    4.181385    0.653668
H     -0.838009    5.860865    -0.642401
H     0.530578    4.454736    -2.215636
H     0.794144    2.025060    -1.731767
H     -1.471360    2.310511    1.699475
H     -1.871914    4.733628    1.355766
C     4.896345    0.610530    0.064494
C     4.229579    0.837173    1.267843
C     2.847746    0.681283    1.309080
N     2.115894    0.316871    0.239428
C     2.766721    0.102188    -0.924187
C     4.145221    0.238324    -1.049709
H     5.974236    0.723913    -0.002834
H     4.765153    1.135028    2.163425
H     2.294522    0.855812    2.224143
H     2.120865    -0.170150    -1.749545
H     4.615040    0.054428    -2.010461
C     0.785048    -4.835424    0.149059
C     0.891037    -4.157547    1.363363
C     0.671592    -2.784260    1.386085
N     0.362378    -2.071315    0.285972
C     0.268371    -2.730353    -0.888547
C     0.468214    -4.103015    -0.994080
H     0.947508    -5.907836    0.096465
H     1.140923    -4.678773    2.281828
H     0.746847    -2.226059    2.312854
H     0.038440    -2.092374    -1.732748
H     0.377084    -4.582833    -1.963166
C     -4.752151    -0.946588    -0.261736
C     -4.002174    -0.322392    -1.256288
C     -2.647976    -0.083495    -1.039538
N     -2.022564    -0.419522    0.108609
C     -2.752200    -1.037471    1.057885
C     -4.107056    -1.317114    0.917946
H     -5.809923    -1.147032    -0.403785
H     -4.450933    -0.025537    -2.198611
H     -2.016849    0.362485    -1.796388
H     -2.217577    -1.320902    1.957155
H     -4.638351    -1.820479    1.719260
N     -0.155650    0.204656    2.255917
C     -0.285253    0.359833    3.400684
C     -0.451928    0.565336    4.835382
H     -0.421928    -0.393274    5.363496
H     0.343686    1.208999    5.224849
H     -1.417301    1.042928    5.032772
F     0.080359    -0.069146    -1.616802
