19

Mn     -0.147116    -0.153274    -0.003388
S     -0.507304    2.324482    -0.438138
H     0.535525    2.972875    0.125607
H     -1.367936    2.698585    0.533391
S     2.333740    0.181075    -0.224601
H     2.832015    -0.947817    -0.773446
H     2.612955    0.960214    -1.291533
S     0.331475    -2.648246    0.384918
H     -0.552219    -3.167516    1.264649
H     -0.187680    -3.277229    -0.690238
S     -2.581426    -0.527457    0.493103
H     -3.353906    0.318699    -0.223909
H     -2.987709    -1.630240    -0.170589
O     0.080689    0.190064    2.013665
H     -0.490701    -0.136076    2.732749
H     0.935190    0.437914    2.411021
O     -0.339184    -0.560915    -2.019765
H     -1.204712    -0.782555    -2.408208
H     0.126081    -0.032618    -2.694197
