23

Mn     0.049798    -0.208078    0.020663
N     0.246477    1.905421    -0.274624
H     -0.055916    2.497848    0.502924
H     -0.271966    2.247638    -1.087666
H     1.213681    2.187290    -0.454182
N     2.154951    -0.423756    -0.227976
H     2.721214    0.221536    0.330193
H     2.402249    -0.226656    -1.202174
H     2.550170    -1.348014    -0.037009
N     -0.179270    -2.312688    0.287252
H     -0.316845    -2.505132    1.283164
H     0.596173    -2.916155    0.001959
H     -1.001844    -2.708888    -0.175667
N     -2.049715    0.022545    0.285626
H     -2.386687    0.988356    0.283300
H     -2.343132    -0.359414    1.189311
H     -2.626999    -0.460458    -0.408128
O     0.199220    -0.099668    2.171414
H     -0.153595    0.621673    2.722124
H     0.960769    -0.446653    2.668778
O     -0.079279    -0.379030    -2.124814
H     0.169984    -1.185572    -2.609594
H     -0.748535    0.054202    -2.683252
