49

Mn     0.005787    0.009278    -0.003214
C     0.011547    -0.151788    1.901675
O     0.022635    -0.240538    3.037723
C     0.022023    0.186384    -1.906373
O     0.037135    0.296882    -3.040548
C     -0.032619    4.906594    0.390621
C     0.812784    4.137992    1.191631
C     0.799268    2.754692    1.055713
N     0.000465    2.111633    0.172335
C     -0.812641    2.866340    -0.603484
C     -0.858002    4.252442    -0.524070
H     -0.047147    5.988599    0.477365
H     1.474595    4.597581    1.917981
H     1.449733    2.137604    1.664313
H     -1.451769    2.334339    -1.298186
H     -1.530344    4.801197    -1.174494
C     4.916848    -0.033265    -0.001563
C     4.194738    -0.908696    0.810145
C     2.806359    -0.864004    0.782770
N     2.113806    -0.001696    0.002170
C     2.823303    0.844058    -0.781308
C     4.212350    0.857230    -0.812519
H     6.002240    -0.045558    -0.000068
H     4.693945    -1.618842    1.461080
H     2.224628    -1.545328    1.392095
H     2.254519    1.538480    -1.388425
H     4.723800    1.557183    -1.464485
C     -0.002323    -4.885695    -0.394210
C     -0.804489    -4.241320    0.548346
C     -0.779843    -2.854038    0.620992
N     -0.002788    -2.089928    -0.182060
C     0.771818    -2.723923    -1.093093
C     0.798501    -4.106756    -1.230178
H     -0.000823    -5.968329    -0.475496
H     -1.440694    -4.799712    1.226905
H     -1.404465    -2.329810    1.334849
H     1.393142    -2.099156    -1.723501
H     1.435608    -4.557084    -1.984091
C     -4.904973    -0.026936    0.019404
C     -4.190601    -0.725595    -0.954423
C     -2.801491    -0.686189    -0.931512
N     -2.101666    0.007781    -0.003691
C     -2.803530    0.687881    0.933077
C     -4.192384    0.692963    0.979112
H     -5.990404    -0.042825    0.030905
H     -4.695616    -1.294488    -1.727668
H     -2.224975    -1.230052    -1.670922
H     -2.229193    1.250388    1.659924
H     -4.698769    1.252944    1.758106
