19
03/24/2023 16:57, XYZ structure generated by mol3D Class, molSimplify
Mn     0.165740    0.010075    -0.007234
P     0.039883    2.660923    -0.471264
H     -1.059546    3.308000    -1.091374
P     1.622406    3.723681    -1.249653
P     3.397208    2.627937    -0.385081
P     2.749525    0.673090    -0.407718
H     3.840950    0.015683    0.215837
P     0.568116    -2.572304    0.657521
H     -0.053090    -3.665315    0.000583
P     0.546959    -3.218756    2.612695
P     1.408419    -1.441737    3.707528
P     0.628149    0.139135    2.643684
H     1.246150    1.239846    3.290590
P     -2.485691    -0.450380    0.118120
H     -3.134185    -1.068671    1.217728
P     -3.548272    -1.229109    -1.464318
P     -2.450889    -0.367266    -3.239455
P     -0.496365    -0.390757    -2.590946
H     0.162245    0.230921    -3.682701
