56

Mn     0.003804    -0.031993    -0.152395
C     -0.038159    -0.063126    2.556421
O     -0.053340    -0.068204    3.687221
O     0.059312    -0.013884    -2.515990
C     1.199735    0.175998    -3.295456
C     0.854270    0.276827    -4.598689
C     -0.577975    0.148452    -4.665438
C     -1.019423    -0.024762    -3.398917
H     2.129035    0.208781    -2.750679
H     1.531978    0.423892    -5.428478
H     -1.987069    -0.169202    -2.945643
H     -1.190300    0.178927    -5.556064
C     -0.396773    5.038278    -0.096774
C     0.140751    4.358227    0.997705
C     0.248773    2.974363    0.935906
N     -0.148338    2.248092    -0.133270
C     -0.667895    2.916725    -1.185811
C     -0.807519    4.300828    -1.207388
H     -0.489584    6.119954    -0.084598
H     0.475049    4.888022    1.883375
H     0.679621    2.419959    1.763705
H     -0.971622    2.314719    -2.035354
H     -1.229589    4.786031    -2.080723
C     5.000738    0.378337    0.693296
C     4.307722    -0.772514    1.070593
C     2.949932    -0.863889    0.783962
N     2.260695    0.115198    0.156706
C     2.944244    1.225243    -0.203934
C     4.302542    1.394005    0.039358
H     6.060386    0.482749    0.904642
H     4.806417    -1.590362    1.579813
H     2.385278    -1.748705    1.057128
H     2.371761    2.000146    -0.700842
H     4.796309    2.307172    -0.275632
C     0.296550    -5.115017    -0.278322
C     -0.248953    -4.465530    0.830742
C     -0.311356    -3.076900    0.828290
N     0.138915    -2.318186    -0.196236
C     0.665709    -2.958084    -1.263562
C     0.760517    -4.343590    -1.344208
H     0.357510    -6.198444    -0.311084
H     -0.622870    -5.021925    1.683738
H     -0.745066    -2.544044    1.669221
H     1.015794    -2.331221    -2.075913
H     1.189990    -4.803358    -2.227928
C     -5.042082    -0.363107    0.336361
C     -4.339747    0.702043    0.900807
C     -2.959327    0.755067    0.742076
N     -2.257395    -0.185340    0.072449
C     -2.948204    -1.216193    -0.465147
C     -4.329788    -1.338059    -0.363775
H     -6.120423    -0.431872    0.440753
H     -4.849012    1.484858    1.452737
H     -2.387021    1.578025    1.157074
H     -2.363053    -1.963825    -0.990173
H     -4.832137    -2.181902    -0.825150
