42

Mn     -0.003525    0.003459    0.214130
C     0.024631    2.371388    0.012538
N     0.034734    3.522900    -0.155227
C     0.046663    4.937722    -0.364154
H     0.859809    5.191608    -1.048363
H     0.199746    5.440827    0.593640
H     -0.909872    5.244494    -0.794093
C     2.343139    -0.021088    0.145541
N     3.505421    -0.016815    0.105496
C     4.934056    -0.009659    0.050732
H     5.272219    -0.831566    -0.585020
H     5.333582    -0.134101    1.060046
H     5.271791    0.942443    -0.365815
C     -0.028582    -2.365078    0.011623
N     -0.036127    -3.516649    -0.155951
C     -0.044772    -4.931567    -0.364439
H     -0.858195    -5.187708    -1.047464
H     -0.195329    -5.434799    0.593695
H     0.911952    -5.236063    -0.795575
C     -2.349092    0.025232    0.154298
N     -3.511119    0.017399    0.108539
C     -4.939299    0.004936    0.044301
H     -5.254454    -0.637704    -0.781442
H     -5.299546    1.023013    -0.122257
H     -5.338826    -0.379288    0.985863
C     -0.007384    0.002774    -2.185005
N     -0.004463    -0.000342    -3.348764
C     0.000964    -0.005762    -4.778416
H     -0.625216    -0.826144    -5.137235
H     1.025506    -0.141351    -5.133123
H     -0.393193    0.945606    -5.143625
C     0.001421    -0.000717    5.290243
C     -0.181417    1.185634    4.579233
C     -0.174958    1.141008    3.189718
N     0.005227    0.002040    2.488774
C     0.183749    -1.138282    3.187948
C     0.186657    -1.185587    4.577381
H     -0.000076    -0.001743    6.376024
H     -0.327241    2.132093    5.088921
H     -0.317054    2.042516    2.603419
H     0.327526    -2.038635    2.600327
H     0.330343    -2.133133    5.085630
