32

Mn     0.077719    0.072416    0.251437
C     0.521121    3.185281    0.585911
N     0.336214    2.044629    0.545205
C     0.755525    4.624276    0.609423
H     0.975181    4.976851    -0.403328
H     1.605020    4.860878    1.257600
H     -0.130237    5.148256    0.981714
C     3.186151    -0.437829    0.529110
N     2.041713    -0.275034    0.500250
C     4.629799    -0.642577    0.540038
H     5.128270    0.193251    1.040735
H     4.999556    -0.708409    -0.488170
H     4.879150    -1.569552    1.065644
C     -0.311382    -2.992658    -0.422107
N     -0.170950    -1.890378    -0.102158
C     -0.482837    -4.376182    -0.849465
H     0.341434    -4.993674    -0.479226
H     -0.496141    -4.424311    -1.942970
H     -1.425872    -4.778267    -0.466399
C     -2.971799    0.635305    -0.366126
N     -1.876722    0.428750    -0.057702
C     -4.344008    0.901936    -0.781006
H     -4.972992    0.024514    -0.601414
H     -4.364730    1.138383    -1.849610
H     -4.752717    1.750312    -0.223353
C     -0.434575    -0.401710    3.410313
N     -0.251427    -0.232750    2.279851
C     -0.666972    -0.611813    4.834557
H     -1.741465    -0.612169    5.043146
H     -0.197488    0.191157    5.411518
H     -0.243820    -1.569791    5.152742
F     0.360040    0.341215    -1.486568
