21

Mn     -0.012126    -0.173237    -0.070138
O     0.538746    1.963846    -0.235482
H     0.961824    2.361194    -1.018118
H     0.071890    2.694848    0.208052
O     2.137366    -0.702786    -0.195248
H     2.847622    -0.114184    0.117911
H     2.552629    -1.287811    -0.854115
O     -0.359390    -2.337526    0.033011
H     0.247584    -3.023868    0.360243
H     -1.262829    -2.685324    0.133266
O     -2.205022    -0.023119    0.235010
H     -2.639899    0.116466    1.094582
H     -2.851525    0.240689    -0.443125
P     0.415006    0.130934    2.724055
H     0.182529    -0.967968    3.578370
H     -0.233643    1.130744    3.481415
H     1.743691    0.417477    3.103359
P     -0.393171    -0.436013    -2.858634
H     -0.180450    0.624350    -3.765205
H     -1.656499    -0.863091    -3.321761
H     0.396794    -1.421183    -3.488518
