23

Mn     -0.015972    -0.033332    0.123235
P     -0.480105    2.708024    -0.387958
H     -0.485337    3.841593    0.460130
H     0.357866    3.229235    -1.398165
H     -1.714057    2.945900    -1.032321
P     2.721865    0.336169    -0.469576
H     2.938674    1.316361    -1.462942
H     3.837010    0.640138    0.347527
H     3.285525    -0.755690    -1.165739
P     0.425367    -2.809306    0.401814
H     1.416112    -3.300472    -0.476539
H     0.759655    -3.596948    1.529414
H     -0.645858    -3.598676    -0.071648
P     -2.792081    -0.449549    0.446035
H     -3.226088    -1.664079    -0.128916
H     -3.635360    -0.461608    1.583128
H     -3.564749    0.418790    -0.356135
P     0.344833    0.441573    2.823040
H     1.530690    1.065413    3.271717
H     -0.576266    1.269846    3.502980
H     0.339177    -0.638812    3.733838
C     -0.321456    -0.358834    -1.896380
N     -0.500190    -0.539296    -3.038751
