15

Mn     0.000635    0.034734    0.004570
C     -0.044019    1.959039    -0.005316
O     -0.073650    3.096566    -0.008430
C     1.929871    -0.013444    0.007892
O     3.067232    -0.044655    0.010405
C     0.044505    -1.893943    0.013187
O     0.072582    -3.031327    0.013725
C     -1.926445    0.081490    0.004806
O     -3.063874    0.111577    0.006237
N     0.005072    0.050421    1.932007
C     -0.002302    0.106127    3.130436
O     -0.007177    0.151806    4.320424
N     0.009290    0.023675    -1.921772
C     -0.000824    0.078972    -3.120152
O     -0.006802    0.123020    -4.310121
