17

Mn     -0.003031    0.013553    -0.000265
C     -0.001494    2.464647    0.011429
O     -0.001853    3.590907    0.011501
C     2.447571    0.065561    -0.007121
O     3.573493    0.093686    -0.008510
C     -0.004261    -2.437872    -0.012827
O     -0.003361    -3.564230    -0.019588
C     -2.452365    0.062768    0.005283
O     -3.578289    0.088592    0.009655
P     0.002824    -0.064007    2.764028
H     -0.009949    -1.338682    3.365550
H     -1.075043    0.544138    3.439110
H     1.093057    0.522337    3.438535
P     -0.001309    -0.037880    -2.765492
H     -1.248955    -0.108879    -3.417583
H     0.664291    -1.120735    -3.375218
H     0.586220    1.042985    -3.454005
