24

Mn     0.158523    0.082886    0.045191
C     0.483417    0.381496    1.882281
O     0.672585    0.563679    2.988247
O     0.534346    1.985704    -0.481209
H     0.146354    2.309073    -1.318154
H     0.625559    2.749920    0.117743
O     2.105981    -0.337362    -0.388552
H     2.540069    0.328902    -0.955691
H     2.746543    -0.550445    0.316190
O     -0.245311    -1.867781    0.308989
H     -0.205832    -2.457260    -0.466630
H     -0.087711    -2.406492    1.105538
O     -1.836435    0.476413    0.200251
H     -2.214627    0.876103    1.006438
H     -2.404929    -0.291874    -0.003739
O     -0.257058    -0.256349    -1.991165
C     0.566206    -0.931484    -2.910156
C     0.184876    -0.628333    -4.168763
C     -0.924247    0.284869    -4.074445
C     -1.166584    0.495134    -2.762774
H     1.342612    -1.548120    -2.486082
H     0.632069    -1.010542    -5.076580
H     -1.918312    1.035408    -2.209961
H     -1.478824    0.716256    -4.897217
