30

Mn     0.100769    -0.086800    0.027657
O     0.361399    1.964075    -0.240395
H     1.183063    2.289961    0.171640
H     0.397907    2.273923    -1.163039
O     2.144581    -0.220939    0.324040
H     2.698912    -0.835265    -0.187140
H     2.444312    -0.274146    1.248868
O     -0.143424    -2.108133    0.479282
H     -0.079170    -2.770066    -0.232335
H     -0.994146    -2.285604    0.920824
O     -1.944491    0.095694    -0.135421
H     -2.416461    0.693619    0.470965
H     -2.417480    0.119766    -0.984787
C     0.277092    -0.505012    -1.927992
N     0.356484    -0.755751    -3.063282
C     0.451243    -1.072556    -4.458693
H     -0.230442    -1.896828    -4.683385
H     1.478183    -1.365619    -4.690272
H     0.175224    -0.192990    -5.045817
C     -0.521817    0.850833    4.798384
C     -0.946651    1.760466    3.828956
C     -0.729946    1.467164    2.487489
N     -0.129833    0.326929    2.066355
C     0.282893    -0.546467    3.018216
C     0.109465    -0.321272    4.379718
H     -0.676089    1.052131    5.853984
H     -1.434810    2.690472    4.100882
H     -1.017480    2.172808    1.714301
H     0.757204    -1.459040    2.669443
H     0.461420    -1.058709    5.093651
