37

Mn     0.001224    0.001842    -0.001917
C     0.331170    2.299724    0.371146
N     0.493165    3.437100    0.551807
C     0.691262    4.835610    0.773294
H     1.625239    5.145305    0.298262
H     0.742511    5.024917    1.848207
H     -0.145291    5.389102    0.340021
C     2.297882    -0.372394    0.334933
N     3.433486    -0.556466    0.505278
C     4.829185    -0.783461    0.716648
H     5.181092    -1.537593    0.008623
H     4.983874    -1.135666    1.739348
H     5.372262    0.151867    0.561525
C     -0.329287    -2.295471    -0.377626
N     -0.492772    -3.431866    -0.563031
C     -0.693636    -4.828900    -0.791391
H     -1.452064    -4.959890    -1.566925
H     -1.028141    -5.299395    0.136300
H     0.248181    -5.278232    -1.115340
C     -2.296730    0.373873    -0.334904
N     -3.434292    0.552858    -0.497436
C     -4.833021    0.771562    -0.696880
H     -5.096004    1.767871    -0.333420
H     -5.396347    0.015765    -0.144289
H     -5.059543    0.695260    -1.763088
C     -0.375040    -0.328956    2.295591
N     -0.557839    -0.491253    3.432585
C     -0.782309    -0.690176    4.830498
H     -0.317335    -1.629804    5.138386
H     -1.857831    -0.730608    5.018982
H     -0.340651    0.140492    5.386215
C     0.377278    0.333681    -2.298948
N     0.559984    0.496861    -3.435815
C     0.783968    0.696977    -4.833562
H     0.123334    0.036745    -5.400604
H     1.826251    0.466317    -5.066776
H     0.570984    1.738651    -5.085597
