21

Mn     0.000034    0.000061    0.027285
C     0.048205    2.457136    0.063217
O     0.096322    3.581125    0.110590
C     2.464547    0.048118    0.053132
O     3.589428    0.092700    0.034708
C     -0.048209    -2.457166    0.063311
O     -0.096289    -3.580978    0.110555
C     -2.464558    -0.048148    0.053371
O     -3.589301    -0.092733    0.034716
O     -0.000048    -0.000048    2.206389
H     0.759938    0.153157    2.800211
H     -0.760077    -0.153188    2.800176
O     -0.000025    0.000034    -2.130486
C     0.782181    -0.813141    -2.981717
C     0.500312    -0.519950    -4.265443
C     -0.500527    0.519825    -4.265288
C     -0.782338    0.813151    -2.981595
H     1.447712    -1.509027    -2.494489
H     0.946408    -0.983943    -5.135171
H     -1.447848    1.509130    -2.494409
H     -0.946597    0.983685    -5.134987
