31

Mn     -0.254413    -0.010801    -0.058081
O     -0.382324    2.209677    0.147506
H     -0.914346    2.564016    -0.590524
N     -1.160853    2.548370    1.361866
H     -0.499053    2.237673    2.087658
H     -1.136725    3.573499    1.389470
O     2.031860    0.477301    -0.056495
H     2.092105    1.451235    -0.119378
N     2.603579    -0.013888    -1.316454
H     3.601677    0.214564    -1.272506
H     2.516070    -1.033124    -1.194097
O     -0.094097    -2.240054    -0.227147
H     0.272816    -2.523778    0.632246
N     0.943045    -2.619071    -1.211035
H     0.909934    -3.644099    -1.218254
H     0.479588    -2.318407    -2.080764
O     -2.452235    -0.294442    0.181140
H     -2.686149    -1.233885    0.040582
N     -2.726116    -0.051207    1.614575
H     -2.752527    0.977422    1.630028
H     -3.691691    -0.365708    1.757827
O     -0.087344    -0.538682    2.074566
H     -1.057319    -0.453334    2.311772
N     0.590193    0.530252    2.819642
H     0.588290    0.197610    3.789611
H     1.556567    0.409453    2.505545
O     0.120211    0.417575    -2.160640
H     1.130486    0.380721    -2.182959
N     -0.290483    -0.627169    -3.114360
H     -1.297266    -0.462429    -3.187765
H     0.080720    -0.299151    -4.012534
