29

Mn     0.000302    0.002319    -0.017450
C     0.396158    2.390941    0.366964
N     0.578007    3.523673    0.586155
C     0.800729    4.898862    0.862312
H     1.494721    5.313847    0.126107
H     1.223938    5.008328    1.864708
H     -0.147009    5.441757    0.808409
C     2.400251    -0.361340    -0.356695
N     3.552540    -0.539040    -0.426737
C     4.954615    -0.756920    -0.487218
H     5.169451    -1.581530    -1.172590
H     5.330084    -1.005146    0.509433
H     5.451594    0.148034    -0.847670
C     -0.393787    -2.390142    -0.378103
N     -0.575089    -3.531013    -0.550528
C     -0.795613    -4.918666    -0.757567
H     -1.774416    -5.069621    -1.221253
H     -0.762876    -5.443088    0.201493
H     -0.020556    -5.318942    -1.417041
C     -2.401198    0.367730    0.312833
N     -3.554024    0.548774    0.363114
C     -4.956270    0.771354    0.395208
H     -5.181135    1.605377    1.065828
H     -5.462601    -0.127415    0.758125
H     -5.312621    1.007817    -0.611285
C     0.321246    -0.361274    2.104531
N     0.519018    -0.553151    3.242783
C     -0.321819    0.365772    -2.138251
N     -0.520497    0.557801    -3.276310
