20

Mn     0.049611    0.016566    -0.032040
O     0.426416    2.188666    -0.165686
H     1.321232    2.489232    -0.402267
H     -0.181174    2.919241    -0.375572
O     2.256543    -0.107060    -0.318015
H     2.722059    -0.336439    -1.141264
H     2.892204    -0.261883    0.403066
O     -0.231709    -2.091637    0.552508
H     0.282181    -2.881898    0.310114
H     -1.144595    -2.394050    0.707600
O     -2.115908    0.169542    0.402778
H     -2.375315    0.444106    1.299757
H     -2.883119    0.326747    -0.174343
O     0.206886    0.362135    2.122306
H     0.459851    1.216523    2.512648
H     0.354710    -0.325193    2.794784
P     -0.416712    -0.367735    -2.765212
H     0.359372    0.335355    -3.711056
H     -0.307170    -1.665394    -3.307806
H     -1.697236    -0.037013    -3.258486
