53

Mn     -0.000171    -0.047846    -0.026679
C     0.006825    5.045989    0.032421
C     0.934722    4.341894    -0.736426
C     0.898771    2.951767    -0.722437
N     0.004362    2.244744    0.001640
C     -0.887955    2.936809    0.742123
C     -0.921702    4.326430    0.786006
H     0.007477    6.131732    0.044753
H     1.676533    4.857828    -1.336979
H     1.612673    2.373821    -1.300305
H     -1.600316    2.346970    1.309764
H     -1.661972    4.829958    1.398683
C     5.091289    -0.174337    0.113026
C     4.384066    0.736361    0.899867
C     2.995749    0.755338    0.818899
N     2.294061    -0.073992    0.017057
C     2.988841    -0.951408    -0.738433
C     4.376987    -1.032307    -0.724382
H     6.175793    -0.213632    0.150877
H     4.897424    1.424565    1.563077
H     2.415476    1.463282    1.402464
H     2.401232    -1.613926    -1.365333
H     4.882508    -1.756568    -1.354358
C     -0.012104    -5.134286    -0.042576
C     0.797157    -4.428295    0.849135
C     0.776411    -3.038182    0.813927
N     -0.002343    -2.335083    -0.035737
C     -0.785148    -3.027976    -0.889715
C     -0.816643    -4.417797    -0.930295
H     -0.015211    -6.220078    -0.045680
H     1.437786    -4.942550    1.557962
H     1.408969    -2.456443    1.477268
H     -1.410384    -2.438322    -1.553268
H     -1.458837    -4.923838    -1.643338
C     -5.094109    -0.147715    -0.137206
C     -4.378968    -1.016732    0.688018
C     -2.990290    -0.945191    0.691898
N     -2.295729    -0.066160    -0.061940
C     -2.998323    0.773453    -0.852224
C     -4.387302    0.764534    -0.922593
H     -6.178966    -0.180567    -0.167456
H     -4.883955    -1.742967    1.316150
H     -2.402544    -1.616922    1.308868
H     -2.418293    1.481543    -1.435793
H     -4.900959    1.460566    -1.577477
P     -0.047768    -0.051786    2.976410
H     -0.396196    1.125990    3.676823
H     1.147338    -0.322113    3.682993
H     -0.877382    -0.936616    3.702771
P     0.045541    0.017812    -3.009176
H     0.410760    1.206379    -3.682098
H     -1.149401    -0.225807    -3.725848
H     0.870975    -0.862118    -3.746382
