35

Mn     0.061631    -0.066899    0.094259
C     0.571069    3.034796    -0.370054
N     0.393467    1.903578    -0.199817
C     0.795968    4.458056    -0.585974
H     0.731215    4.688700    -1.654398
H     1.790708    4.737027    -0.223233
H     0.043459    5.043370    -0.047855
C     3.165008    -0.504673    0.567795
N     2.036277    -0.339331    0.370464
C     4.586599    -0.711058    0.812036
H     5.108672    0.251314    0.810901
H     5.014311    -1.349960    0.032630
H     4.731028    -1.191374    1.785326
C     -0.477128    -3.158637    0.557479
N     -0.285600    -2.033913    0.361299
C     -0.719588    -4.574794    0.799498
H     0.201489    -5.057759    1.141815
H     -1.051292    -5.060094    -0.124361
H     -1.492887    -4.698295    1.564451
C     -3.046556    0.397583    -0.382699
N     -1.915707    0.220052    -0.210486
C     -4.470352    0.619996    -0.598288
H     -5.051139    0.023785    0.113183
H     -4.747289    0.327326    -1.616240
H     -4.709769    1.678339    -0.452890
C     -0.398851    0.470291    3.184232
N     -0.234784    0.285594    2.053196
C     -0.607074    0.703991    4.607992
H     -1.657029    0.533031    4.866283
H     -0.340703    1.735126    4.861334
H     0.018286    0.022048    5.193280
P     0.417473    -0.509674    -2.286701
H     1.730099    -0.439523    -2.797534
H     0.032984    -1.758862    -2.816487
H     -0.227533    0.333293    -3.216139
