151

Mn     0.002014    0.018233    0.051069
C     0.324871    2.307651    -0.302431
N     0.472437    3.457539    -0.445138
C     0.638950    4.826937    -0.604666
C     -0.433305    5.689219    -0.337959
C     -0.251819    7.055955    -0.493822
C     0.977612    7.604176    -0.910378
C     1.122176    9.126349    -1.062542
C     0.129323    9.622629    -2.142206
C     0.797108    9.806676    0.290415
C     2.544921    9.541470    -1.481150
C     2.027719    6.708699    -1.171191
C     1.872788    5.332717    -1.023977
H     -1.386752    5.285548    -0.013084
H     -1.088675    7.713192    -0.282824
H     0.348008    9.173338    -3.117375
H     0.205606    10.710413    -2.246375
H     -0.909152    9.386924    -1.886553
H     1.480951    9.470009    1.077546
H     -0.226792    9.604360    0.621376
H     0.901873    10.892735    0.194001
H     3.296632    9.231107    -0.746390
H     2.596716    10.631841    -1.559906
H     2.824419    9.131922    -2.458686
H     2.991626    7.081749    -1.495385
H     2.695771    4.656036    -1.230241
C     2.288846    -0.355007    -0.279002
N     3.428566    -0.541337    -0.454574
C     4.782940    -0.762383    -0.667837
C     5.242091    -2.062415    -0.919965
C     6.597844    -2.265976    -1.135108
C     7.526889    -1.206801    -1.109958
C     9.016884    -1.490888    -1.357307
C     9.533585    -2.461694    -0.267173
C     9.185193    -2.142656    -2.751553
C     9.871812    -0.209689    -1.311672
C     7.029240    0.081119    -0.851750
C     5.674327    0.313840    -0.630889
H     4.541738    -2.890996    -0.945882
H     6.940169    -3.277174    -1.328153
H     9.428365    -2.026531    0.732826
H     10.594926    -2.676105    -0.432923
H     8.998818    -3.417404    -0.277901
H     8.830647    -1.476305    -3.545806
H     8.638438    -3.087766    -2.832999
H     10.243452    -2.355675    -2.937134
H     9.569094    0.513283    -2.077583
H     10.919507    -0.464475    -1.498855
H     9.825952    0.279639    -0.332110
H     7.704110    0.927702    -0.820117
H     5.307832    1.315844    -0.432250
C     -0.331629    -2.267829    0.409271
N     -0.500917    -3.413368    0.562334
C     -0.706954    -4.775582    0.735631
C     -1.932368    -5.342613    0.359782
C     -2.122819    -6.706335    0.531181
C     -1.121428    -7.539607    1.068465
C     -1.388521    -9.043815    1.237175
C     -2.565475    -9.235906    2.225603
C     -1.764889    -9.652716    -0.135798
C     -0.163034    -9.798497    1.785783
C     0.091743    -6.934774    1.435997
C     0.308920    -5.568369    1.277386
H     -2.714111    -4.717609    -0.059689
H     -3.075847    -7.132419    0.236136
H     -2.326244    -8.822099    3.211484
H     -2.777557    -10.303480    2.349001
H     -3.483176    -8.755345    1.870181
H     -0.949115    -9.538444    -0.858388
H     -2.661072    -9.188134    -0.559141
H     -1.969586    -10.722972    -0.024711
H     0.703675    -9.712850    1.120306
H     -0.401468    -10.862829    1.875729
H     0.126206    -9.444953    2.781880
H     0.891987    -7.532205    1.855379
H     1.252554    -5.118499    1.568758
C     -2.289314    0.384740    0.357635
N     -3.437780    0.557288    0.483175
C     -4.803701    0.764428    0.623522
C     -5.360660    1.991867    0.239254
C     -6.728105    2.182444    0.377980
C     -7.574786    1.179483    0.890867
C     -9.082833    1.446313    1.022227
C     -9.300286    2.628520    1.998923
C     -9.658179    1.814041    -0.367421
C     -9.849554    0.223277    1.559552
C     -6.979870    -0.035683    1.268009
C     -5.610246    -0.253249    1.141325
H     -4.725222    2.775072    -0.161225
H     -7.146396    3.136943    0.076716
H     -8.908905    2.396065    2.995506
H     -10.370915    2.838649    2.096258
H     -8.814175    3.545505    1.649386
H     -9.527903    0.993156    -1.081480
H     -9.182205    2.706607    -0.785837
H     -10.730507    2.020744    -0.283392
H     -9.747465    -0.647392    0.901622
H     -10.915954    0.461209    1.622193
H     -9.520071    -0.059519    2.565745
H     -7.588197    -0.837020    1.669215
H     -5.168240    -1.198805    1.438574
C     0.356028    0.347778    2.333112
N     0.511265    0.522349    3.477462
C     0.688440    0.733421    4.838368
C     1.978828    0.933013    5.347531
C     2.137527    1.147093    6.709449
C     1.042354    1.170416    7.596007
C     1.277044    1.415799    9.094990
C     2.204655    0.307697    9.650824
C     1.951995    2.796715    9.281540
C     -0.035447    1.401200    9.902160
C     -0.234582    0.963917    7.048555
C     -0.422913    0.746676    5.686234
H     2.834736    0.919227    4.680510
H     3.141681    1.300319    7.090530
H     1.752885    -0.683354    9.531986
H     2.382760    0.472746    10.718970
H     3.179482    0.296985    9.152206
H     1.314174    3.603353    8.903312
H     2.915636    2.856612    8.765100
H     2.134174    2.981309    10.345798
H     -0.726510    2.186753    9.576255
H     0.185166    1.578763    10.959288
H     -0.547836    0.434858    9.834170
H     -1.108176    0.971501    7.688679
H     -1.417240    0.589662    5.280792
C     -0.339509    -0.316389    -2.234403
N     -0.467211    -0.502579    -3.380370
C     -0.598519    -0.730853    -4.743673
C     0.534337    -0.662467    -5.566209
C     0.393627    -0.902774    -6.925501
C     -0.852724    -1.215115    -7.504302
C     -0.945684    -1.488558    -9.013625
C     -0.449818    -0.243098    -9.788232
C     -0.048723    -2.702760    -9.359973
C     -2.383935    -1.803587    -9.465711
C     -1.965649    -1.268225    -6.649283
C     -1.853359    -1.030741    -5.281574
H     1.503065    -0.426235    -5.137940
H     1.278545    -0.847610    -7.550663
H     -1.069772    0.633275    -9.568758
H     -0.499536    -0.431286    -10.866154
H     0.588094    0.006610    -9.545074
H     -0.383712    -3.604474    -8.835183
H     1.000130    -2.529110    -9.097542
H     -0.091729    -2.902883    -10.436125
H     -2.782557    -2.698378    -8.974227
H     -2.392030    -1.993734    -10.543459
H     -3.067763    -0.968205    -9.276694
H     -2.946173    -1.500514    -7.046686
H     -2.724535    -1.078171    -4.636168
