19

Mn     -0.060709    0.046578    0.100229
O     0.100104    2.004085    -0.110081
C     1.240449    2.469228    -0.224653
H     1.414130    3.545725    -0.318014
C     2.326841    1.422642    -0.231092
H     3.389552    1.635413    -0.384661
O     1.916216    0.269904    -0.054188
O     0.098689    -1.929477    0.323079
C     0.275616    -2.340344    1.475782
H     0.431710    -3.402795    1.687988
C     0.266691    -1.254577    2.522833
H     0.360346    -1.428598    3.599248
O     0.150621    -0.114244    2.058093
O     -2.016962    -0.169202    -0.060199
C     -2.481608    -0.290181    -1.200257
H     -3.557773    -0.387808    -1.373368
C     -1.435036    -0.295259    -2.286157
H     -1.646581    -0.452966    -3.348472
O     -0.283461    -0.109221    -1.875892
