35

Mn     -0.064179    -0.066282    0.009256
C     -0.441985    1.869701    -0.231579
N     -0.654036    3.005108    -0.376318
C     -0.913137    4.402171    -0.543267
H     -0.161619    4.831666    -1.210179
H     -0.863135    4.893378    0.431762
H     -1.909217    4.536649    -0.971989
C     1.886028    0.162870    -0.292868
N     3.028907    0.304547    -0.464085
C     4.435058    0.479411    -0.661750
H     4.809494    -0.313742    -1.313563
H     4.940531    0.428700    0.305920
H     4.617152    1.453775    -1.121573
C     0.314857    -2.001700    0.253304
N     0.528788    -3.136112    0.404321
C     0.795928    -4.527867    0.600652
H     -0.006471    -5.116275    0.148875
H     0.842791    -4.734352    1.672865
H     1.750424    -4.782678    0.133814
C     -2.011718    -0.306530    0.322905
N     -3.150185    -0.458713    0.512215
C     -4.546802    -0.645718    0.759996
H     -4.983226    0.297026    1.098728
H     -4.675889    -1.411884    1.528385
H     -5.035006    -0.966773    -0.163597
C     0.221773    0.231838    1.952662
N     0.386044    0.408495    3.089908
C     0.587220    0.626289    4.488799
H     1.239196    -0.155132    4.886445
H     -0.378861    0.600674    4.998871
H     1.052746    1.604620    4.632902
N     -0.370918    -0.331696    -2.073765
H     -1.219161    0.116377    -2.422752
H     0.404170    0.038841    -2.625665
H     -0.443411    -1.321560    -2.312206
