25

Mn     -0.171360    0.031668    -0.098032
S     0.040044    2.695241    -0.484898
H     -0.328452    3.156739    0.736527
O     1.710917    2.652249    -0.294788
H     2.087189    3.490274    -0.630901
S     2.422630    -0.134813    0.328155
H     2.775601    0.139663    -0.952412
O     2.409558    -1.822767    0.225329
H     3.210331    -2.161982    0.671621
S     -0.247037    -2.605360    0.353992
H     0.390764    -3.012734    -0.770018
O     -1.850381    -2.773688    -0.145996
H     -2.156463    -3.670865    0.093409
S     -2.817727    0.189729    -0.661158
H     -3.252717    -0.699883    0.264476
O     -2.886969    1.623663    0.226255
H     -3.747437    2.055515    0.050152
S     -0.674882    0.554172    2.538092
H     -1.832080    -0.110231    2.790729
O     0.443584    -0.556543    3.105096
H     0.660172    -0.324996    4.030644
S     0.171394    -0.415067    -2.826942
H     -0.296114    0.736482    -3.374869
O     1.825217    -0.148450    -2.941555
H     2.142567    -0.556515    -3.772130
