73
03/24/2023 16:57, XYZ structure generated by mol3D Class, molSimplify
Mn     -0.184698    -0.163489    0.024635
O     -0.690635    1.978664    0.164677
C     -0.883119    2.770657    1.125402
N     -1.978486    3.563877    1.263321
C     -1.787193    4.545945    2.336504
C     -0.674671    3.865725    3.167803
N     -0.041965    3.003064    2.162959
H     -2.703674    4.699349    2.909210
H     -1.453801    5.509793    1.932366
H     -1.095926    3.268694    3.986467
H     0.034760    4.585354    3.580841
H     -2.573126    3.735015    0.464608
H     0.678709    2.328476    2.403937
O     1.999337    0.396991    0.026214
C     2.918929    -0.024723    -0.722041
N     4.201872    0.435937    -0.714396
C     4.953929    -0.122000    -1.846501
C     4.122611    -1.385718    -2.166013
N     2.803390    -1.008135    -1.647893
H     5.983200    -0.355693    -1.568343
H     4.963260    0.576087    -2.692824
H     4.517321    -2.264093    -1.639174
H     4.089963    -1.603338    -3.235618
H     4.388893    1.364104    -0.359103
H     2.031477    -1.662572    -1.538249
O     0.445581    -2.246943    -0.413298
C     -0.054636    -3.341882    -0.048469
N     -1.079774    -3.499755    0.826036
C     -1.535338    -4.893531    0.846215
C     -0.296920    -5.634567    0.289669
N     0.350558    -4.566700    -0.481133
H     -2.407933    -5.033360    0.195042
H     -1.794105    -5.217738    1.856282
H     -0.565295    -6.480617    -0.345824
H     0.356632    -5.988109    1.096780
H     -1.696998    -2.707792    0.981618
H     1.267751    -4.678663    -0.889645
O     -2.238879    -0.822458    0.367225
C     -3.235664    -0.655346    -0.385316
N     -4.521102    -0.533004    0.036758
C     -5.450670    -0.591357    -1.097580
C     -4.518618    -0.205198    -2.272501
N     -3.205538    -0.575656    -1.737009
H     -6.280293    0.107212    -0.973059
H     -5.855193    -1.603359    -1.223204
H     -4.568335    0.870323    -2.486554
H     -4.750683    -0.757489    -3.185207
H     -4.774747    -0.822156    0.971397
H     -2.317679    -0.397343    -2.199471
O     -0.048347    -0.397307    2.173703
C     0.840486    -0.278359    3.040128
N     1.955049    0.529441    2.933391
C     2.880606    0.229832    4.041549
C     1.928874    -0.369276    5.102580
N     0.847467    -0.876671    4.254346
H     3.386679    1.129825    4.395504
H     3.635050    -0.502905    3.730491
H     1.560813    0.397285    5.795975
H     2.396653    -1.169249    5.679913
H     2.310054    0.629293    1.981840
H     0.005481    -1.302041    4.617647
O     -0.314733    0.024766    -2.170835
C     -0.017235    0.995528    -2.915514
N     -0.127087    0.981799    -4.271534
C     0.487083    2.179487    -4.856809
C     0.474499    3.144491    -3.647733
N     0.449426    2.206692    -2.517885
H     -0.093378    2.556677    -5.700751
H     1.510148    1.971769    -5.194008
H     -0.422011    3.777485    -3.652669
H     1.357012    3.786746    -3.618187
H     -0.145446    0.094265    -4.756321
H     0.250393    2.498263    -1.563796
