19

Mn     0.002981    -0.211692    -0.261688
N     -0.346060    2.045355    0.023129
H     -1.181818    2.393569    -0.445990
H     0.424340    2.633253    -0.292800
H     -0.454602    2.185441    1.030823
N     2.248695    0.145684    0.008153
H     2.603950    0.958519    -0.494788
H     2.828869    -0.641833    -0.278864
H     2.390867    0.289033    1.011362
N     0.269140    -2.482376    -0.015785
H     1.225013    -2.784769    -0.199807
H     -0.327471    -3.037930    -0.628750
H     0.065248    -2.715230    0.958577
N     -2.270755    -0.489584    -0.002610
H     -2.532832    -1.473476    -0.049979
H     -2.822946    -0.005018    -0.709876
H     -2.541087    -0.162253    0.926357
I     0.022344    -0.205404    2.848998
I     -0.048657    -0.210314    -3.098594
