23

Mn     -0.026778    0.085447    0.111266
O     -0.589826    2.217547    0.347897
H     -0.903772    2.576403    1.197078
H     -0.045471    2.922588    -0.045380
O     2.101276    0.601581    -0.139759
H     2.609899    0.601827    -0.968529
H     2.748858    0.543126    0.583770
O     0.079323    -2.124257    -0.138918
H     0.484977    -2.696146    0.535363
H     0.149450    -2.606370    -0.981036
O     -2.193571    -0.273845    0.160843
H     -2.914449    0.377340    0.135373
H     -2.591326    -1.152615    0.280693
N     0.348893    -0.243299    2.273941
C     0.464031    -0.389901    3.419888
C     0.608679    -0.572911    4.855764
H     -0.340903    -0.351286    5.355252
H     0.893594    -1.608274    5.072783
H     1.382807    0.099803    5.240952
P     -0.428342    0.433196    -2.683814
H     -1.489406    1.312040    -2.988450
H     -0.870549    -0.680577    -3.430782
H     0.522613    0.928577    -3.602744
