54

Mn     0.042118    -0.012772    0.071211
C     0.045846    0.004605    -2.210031
N     0.052753    0.036773    -3.370811
C     0.052544    0.090575    -4.802827
H     -0.537761    -0.743378    -5.190264
H     1.081569    0.015700    -5.162630
H     -0.384894    1.040225    -5.120165
O     0.035882    2.275939    0.028038
C     -1.095392    3.084557    -0.117174
C     -0.718620    4.376608    -0.225361
C     0.720304    4.408236    -0.153029
C     1.140415    3.133319    -0.004453
H     -2.037250    2.561026    -0.102391
H     -1.381080    5.223260    -0.340524
H     2.099104    2.649426    0.090524
H     1.352320    5.283687    -0.207885
O     2.383156    -0.031352    0.089401
C     3.215177    0.274325    1.171665
C     4.508333    0.134804    0.806293
C     4.517671    -0.285319    -0.572033
C     3.229629    -0.374520    -0.968180
H     2.705587    0.541896    2.082785
H     5.369609    0.303960    1.437738
H     2.738810    -0.649624    -1.887390
H     5.386558    -0.492969    -1.181600
O     0.074224    -2.297360    0.045556
C     1.199617    -3.108510    0.221507
C     0.850735    -4.404295    0.072807
C     -0.561410    -4.435256    -0.214874
C     -0.995455    -3.156114    -0.225971
H     2.115602    -2.584422    0.438919
H     1.514286    -5.253844    0.155095
H     -1.948037    -2.672787    -0.377929
H     -1.167812    -5.313339    -0.389162
O     -2.356287    -0.002777    0.040903
C     -3.184121    -0.249290    -1.057777
C     -4.479654    -0.108833    -0.699764
C     -4.494466    0.248860    0.694843
C     -3.208460    0.302240    1.105587
H     -2.676925    -0.490647    -1.977776
H     -5.336879    -0.241274    -1.345613
H     -2.724137    0.514215    2.043945
H     -5.365846    0.436349    1.306863
C     -0.221649    -0.006316    5.085989
C     0.036424    1.176085    4.389171
C     0.095929    1.139895    3.001493
N     -0.079818    0.000346    2.286795
C     -0.327078    -1.139948    2.974646
C     -0.407752    -1.183803    4.361331
H     -0.275806    -0.009378    6.170216
H     0.187047    2.116536    4.908593
H     0.290731    2.039268    2.428983
H     -0.465352    -2.035027    2.381961
H     -0.610426    -2.127466    4.856420
