21

Mn     0.054328    0.000451    -0.181943
C     0.064710    -0.001389    2.453189
O     0.065762    0.003457    3.582123
O     -0.032583    2.141446    0.222526
H     0.703902    2.775251    0.160437
H     -0.849178    2.670507    0.242417
O     2.249617    0.001148    0.091990
H     2.915636    -0.005228    -0.617784
H     2.743372    0.004894    0.930698
O     -0.034062    -2.141030    0.224667
H     0.702228    -2.774654    0.158823
H     -0.850913    -2.669826    0.245411
O     -2.182502    -0.000092    0.105156
H     -2.691862    -0.003265    0.934413
H     -2.838477    0.009276    -0.613391
C     0.030156    0.001544    -2.417859
N     0.011762    -0.001668    -3.577648
C     -0.012096    -0.002345    -5.010448
H     -0.627760    -0.838061    -5.352824
H     1.010166    -0.116164    -5.379750
H     -0.432206    0.945748    -5.355847
