25

Mn     -0.018658    -0.017162    -0.000952
P     -0.424000    2.375457    -0.284233
H     -1.687553    2.941336    -0.011372
H     0.383395    3.282049    0.435196
H     -0.224260    2.898771    -1.581125
P     2.385073    0.266776    -0.339954
H     2.992362    1.489946    0.017451
H     3.285559    -0.617467    0.290216
H     2.872371    0.167419    -1.662453
P     0.392225    -2.406764    0.299136
H     1.689134    -2.895360    0.563936
H     -0.310609    -3.077730    1.322263
H     0.055466    -3.253862    -0.780437
P     -2.411325    -0.334403    0.376980
H     -2.827554    -1.304632    1.313325
H     -3.218344    0.742954    0.799142
H     -3.175962    -0.765591    -0.729890
P     0.307778    0.357483    2.430797
H     1.511902    0.961479    2.849469
H     -0.607093    1.170187    3.132727
H     0.313744    -0.765793    3.284020
N     -0.289546    -0.251647    -2.098079
H     -1.180435    0.108137    -2.448289
H     0.429952    0.212875    -2.657279
H     -0.262857    -1.232271    -2.387168
