56

Mn     -0.076176    -0.057483    0.082143
C     -0.355871    -0.351698    1.846851
O     -0.586644    -0.603422    2.942858
O     -0.088044    0.042870    -2.339880
C     0.542870    -0.795297    -3.258667
C     0.106205    -0.534225    -4.511192
C     -0.857692    0.527162    -4.404683
C     -0.946753    0.846282    -3.094232
H     1.250388    -1.496196    -2.852356
H     0.428551    -1.033416    -5.414575
H     -1.537132    1.555709    -2.540018
H     -1.411239    0.988139    -5.211159
C     0.622554    4.787092    0.602687
C     0.330274    3.982862    1.704036
C     0.102893    2.625559    1.509773
N     0.147796    2.031991    0.292228
C     0.440591    2.822617    -0.764699
C     0.679621    4.187411    -0.655068
H     0.801747    5.851160    0.723189
H     0.279750    4.393421    2.707047
H     -0.117549    1.996776    2.364011
H     0.483867    2.332282    -1.727311
H     0.906826    4.762479    -1.546197
C     4.818772    0.136004    0.372788
C     4.062631    -0.353713    1.437469
C     2.681290    -0.433382    1.304342
N     2.025206    -0.055483    0.182532
C     2.769214    0.417201    -0.843880
C     4.153514    0.524362    -0.790782
H     5.899264    0.212213    0.447223
H     4.528410    -0.670041    2.364659
H     2.078922    -0.819612    2.116932
H     2.231105    0.710885    -1.735305
H     4.692765    0.909710    -1.649635
C     0.040497    -4.985614    -0.220476
C     -1.083818    -4.326319    0.275991
C     -1.090649    -2.936903    0.315351
N     -0.054827    -2.178962    -0.117640
C     1.034989    -2.832195    -0.582379
C     1.119973    -4.216956    -0.654637
H     0.077590    -6.069674    -0.260844
H     -1.945844    -4.875974    0.639152
H     -1.947320    -2.404174    0.708891
H     1.869116    -2.216328    -0.888442
H     2.024374    -4.675929    -1.039851
C     -4.923462    0.278061    -0.497632
C     -4.261004    1.061853    0.447574
C     -2.882929    0.944914    0.573364
N     -2.141999    0.106136    -0.188153
C     -2.792075    -0.641483    -1.111787
C     -4.169508    -0.587481    -1.290629
H     -6.001168    0.341281    -0.611577
H     -4.800044    1.750643    1.089495
H     -2.347107    1.539607    1.302129
H     -2.181853    -1.299884    -1.716963
H     -4.635497    -1.215889    -2.042428
