25

Mn     -0.002627    -0.024632    -0.047425
P     -0.316050    2.355540    0.365274
H     -0.108134    2.867061    1.663513
H     -1.597031    2.895487    0.120556
H     0.455591    3.280412    -0.369690
P     2.371417    0.386718    -0.399825
H     2.876206    1.699004    -0.282978
H     2.951863    0.028612    -1.635012
H     3.271108    -0.271582    0.465611
P     0.310427    -2.404708    -0.458246
H     0.097102    -2.918560    -1.754625
H     -0.457144    -3.328707    0.282056
H     1.592745    -2.943399    -0.217694
P     -2.376279    -0.437684    0.304011
H     -2.955334    -0.092572    1.543549
H     -2.882951    -1.747957    0.173324
H     -3.275841    0.231082    -0.553479
P     0.370953    -0.364197    2.334972
H     1.246531    -1.408809    2.701189
H     -0.721033    -0.692072    3.165594
H     0.937427    0.676452    3.101019
P     -0.374691    0.318992    -2.429074
H     -0.883367    -0.739541    -3.210900
H     0.705141    0.710446    -3.248089
H     -1.298169    1.323443    -2.790026
