51

Mn     0.011279    -0.016942    -0.027785
C     -0.600676    4.818066    -0.715821
C     0.435888    4.125987    -1.342061
C     0.570956    2.760693    -1.117043
N     -0.260119    2.059552    -0.310026
C     -1.267787    2.741258    0.284558
C     -1.468541    4.105928    0.112671
H     -0.732570    5.884028    -0.873507
H     1.133539    4.629380    -2.002929
H     1.370951    2.203526    -1.590194
H     -1.950953    2.163567    0.897753
H     -2.295811    4.593497    0.617593
C     4.807179    0.724544    0.753849
C     3.853123    1.515886    1.394422
C     2.506096    1.277704    1.148908
N     2.064886    0.306407    0.315568
C     3.000755    -0.449032    -0.306754
C     4.366412    -0.274517    -0.114110
H     5.867306    0.886648    0.922391
H     4.141761    2.311425    2.073255
H     1.749637    1.897805    1.615966
H     2.636835    -1.217630    -0.978448
H     5.065901    -0.911736    -0.644691
C     0.667410    -4.831093    0.753032
C     1.214717    -3.890845    1.626319
C     1.007247    -2.539144    1.377769
N     0.293474    -2.079402    0.324778
C     -0.227665    -3.002701    -0.519021
C     -0.066732    -4.371481    -0.340206
H     0.813398    -5.894106    0.918067
H     1.798544    -4.193181    2.489230
H     1.444624    -1.795757    2.033037
H     -0.794947    -2.625503    -1.361311
H     -0.507602    -5.058349    -1.054822
C     -4.796627    -0.764756    -0.731448
C     -4.073441    0.094280    -1.558931
C     -2.716790    0.279811    -1.320657
N     -2.053601    -0.333019    -0.311351
C     -2.764571    -1.170352    0.478627
C     -4.122887    -1.409754    0.306026
H     -5.856791    -0.932248    -0.894263
H     -4.545712    0.612709    -2.386600
H     -2.133558    0.940124    -1.951425
H     -2.216049    -1.683786    1.259862
H     -4.635629    -2.093569    0.974184
N     -0.331972    0.264646    2.065592
H     -1.126021    -0.246284    2.454869
H     -0.514327    1.250457    2.258107
H     0.472603    0.020319    2.643892
C     0.296860    -0.262365    -1.829443
O     0.469940    -0.420678    -2.952110
