53

Mn     0.005243    -0.106546    -0.028604
C     -0.014488    5.058722    0.026411
C     0.947633    4.357142    -0.701853
C     0.921662    2.966217    -0.678235
N     0.004471    2.254854    0.010677
C     -0.920827    2.945620    0.708727
C     -0.965771    4.335934    0.747914
H     -0.022759    6.144544    0.031033
H     1.708709    4.874824    -1.276361
H     1.668790    2.392063    -1.219055
H     -1.660230    2.354893    1.241695
H     -1.732859    4.836720    1.329375
C     5.118357    -0.135388    0.598457
C     4.327350    0.801992    1.264127
C     2.950350    0.778944    1.064616
N     2.335395    -0.112981    0.260543
C     3.111971    -1.016165    -0.375301
C     4.495781    -1.061376    -0.240011
H     6.196110    -0.143639    0.729779
H     4.766346    1.542473    1.924490
H     2.309340    1.506493    1.552903
H     2.593866    -1.732663    -1.006500
H     5.068464    -1.808666    -0.779403
C     -0.033609    -5.253407    -0.035829
C     0.774567    -4.545508    0.855136
C     0.762064    -3.155295    0.808785
N     -0.000905    -2.451177    -0.053541
C     -0.780659    -3.147497    -0.906742
C     -0.825225    -4.537911    -0.935460
H     -0.045288    -6.339056    -0.029426
H     1.405645    -5.058083    1.573635
H     1.395854    -2.574215    1.472542
H     -1.399878    -2.560668    -1.578994
H     -1.469637    -5.044797    -1.646040
C     -5.113496    -0.102006    -0.640869
C     -4.495378    -1.034114    0.194119
C     -3.110539    -1.001177    0.323227
N     -2.328544    -0.104179    -0.314907
C     -2.939464    0.793904    -1.115039
C     -4.317169    0.829346    -1.308568
H     -6.191650    -0.101839    -0.768848
H     -5.072377    -1.776447    0.735835
H     -2.596740    -1.723990    0.950926
H     -2.294354    1.516111    -1.605963
H     -4.752500    1.573991    -1.966699
N     -0.314269    -0.101458    2.282762
H     0.106677    -0.892461    2.772300
H     -1.311132    -0.136248    2.502872
H     0.042972    0.735172    2.746693
N     0.329517    -0.011978    -2.330938
H     -0.115160    -0.764636    -2.858564
H     1.326890    -0.069671    -2.544287
H     0.006655    0.859164    -2.755672
