20

Mn     0.012924    0.002584    0.228169
O     0.152527    2.175939    -0.106189
H     0.219327    2.527925    -1.011339
H     0.452471    2.885125    0.489496
O     2.132939    -0.377031    -0.092927
H     2.430609    -1.291056    -0.241171
H     2.881608    0.209493    -0.295884
O     -0.118473    -2.190011    -0.111073
H     -0.274176    -2.916627    0.517603
H     -0.354573    -2.531072    -0.993382
O     -2.159821    0.328623    0.273534
H     -2.895857    -0.290982    0.418608
H     -2.540631    1.223969    0.261947
N     0.287233    -0.009616    2.448507
H     -0.151393    -0.799835    2.929566
H     -0.074301    0.818050    2.930732
H     1.279967    -0.060716    2.693737
S     -0.401291    -0.252323    -2.667255
H     0.537477    0.127536    -3.556429
H     -1.416569    0.420014    -3.243631
