25

Mn     0.058650    -0.121445    0.118463
P     0.530870    2.600809    0.518623
H     1.410199    3.336883    -0.317704
N     0.006881    3.691920    1.523506
H     -0.661496    3.385350    2.238054
P     2.796411    -0.515652    -0.306567
H     3.748165    -0.018770    0.621619
N     3.695153    -1.203588    -1.398194
H     3.214917    -1.649785    -2.186366
P     -0.361377    -2.872874    -0.247560
H     0.683968    -3.760849    0.117837
N     -1.464217    -3.844565    -0.805614
H     -2.337521    -3.426989    -1.142300
P     -2.671656    0.235705    0.602583
H     -3.419610    -0.769229    1.269939
N     -3.735157    1.372845    0.379298
H     -3.417827    2.222083    -0.099444
P     0.450172    -0.607390    2.857865
H     -0.065292    -1.778280    3.472158
N     1.148880    0.137729    4.053443
H     1.606790    1.031248    3.847429
P     -0.356238    0.313491    -2.612832
H     -1.577846    -0.100112    -3.206312
N     0.433855    0.921694    -3.828400
H     1.367874    1.299071    -3.639557
