19

Mn     -0.014198    -0.009324    -0.008166
S     -0.478080    2.647483    0.479896
H     -1.807310    2.833022    0.328383
H     -0.143029    3.331964    -0.634297
S     2.677579    0.402515    -0.347011
H     2.983076    1.542766    0.308724
H     2.897845    0.918438    -1.574874
S     0.379013    -2.683691    -0.489573
H     -0.018160    -3.341271    0.620700
H     1.691873    -2.946142    -0.309939
S     -2.690788    -0.420781    0.467451
H     -2.799686    -1.436263    1.350448
H     -3.166709    -1.125107    -0.581461
S     0.381960    -0.419368    2.671873
H     0.536330    0.789138    3.255160
H     1.675619    -0.779560    2.813651
S     -0.762190    0.224444    -2.651195
H     0.019552    1.152890    -3.240852
H     -0.217118    -0.818375    -3.313384
