20

Mn     -0.123879    0.052394    0.087163
S     0.217060    2.495234    -0.356066
H     0.702413    3.018975    0.789577
H     1.372937    2.662578    -1.035029
S     2.314381    -0.219814    0.620619
H     2.517778    -1.433146    1.176891
H     3.011994    -0.499446    -0.501027
S     -0.720515    -2.359647    0.460189
H     -0.598128    -2.632985    1.777525
H     0.324251    -3.127296    0.083931
S     -2.601049    0.526813    -0.221278
H     -3.161439    -0.638078    -0.612559
H     -2.767079    1.141778    -1.412307
S     -0.554949    0.385518    2.537886
H     0.481108    1.091894    3.041980
H     -1.442164    1.398664    2.648962
P     0.195801    -0.363301    -2.304325
H     1.449932    -0.796967    -2.782516
H     -0.629338    -1.345362    -2.890714
H     -0.040524    0.701587    -3.199019
