57

Mn     0.048377    0.018260    0.000681
C     0.031907    -0.288116    2.378997
N     0.007393    -0.380244    3.539208
C     -0.026642    -0.486680    4.965456
H     0.457015    -1.418205    5.268613
H     -1.066988    -0.485545    5.299363
H     0.502922    0.363749    5.401733
C     0.022542    0.375908    -2.367627
N     0.016041    0.537883    -3.520356
C     0.002630    0.732091    -4.937588
H     -0.765510    0.092971    -5.379576
H     0.981118    0.467874    -5.345587
H     -0.218588    1.779680    -5.155111
C     0.022393    5.068406    0.782947
C     0.983092    4.260156    1.392691
C     0.954543    2.890205    1.152556
N     0.037796    2.302567    0.357105
C     -0.888012    3.091415    -0.224716
C     -0.930987    4.470126    -0.042013
H     0.017260    6.142018    0.946448
H     1.744575    4.680059    2.041815
H     1.691003    2.231132    1.602154
H     -1.615905    2.588257    -0.853622
H     -1.695695    5.059097    -0.537377
C     5.148251    -0.123226    -0.062718
C     4.415074    -1.018904    0.716707
C     3.026782    -0.932643    0.707092
N     2.352977    -0.021037    -0.023033
C     3.070478    0.839722    -0.773998
C     4.460749    0.824093    -0.823081
H     6.233176    -0.163056    -0.078922
H     4.907082    -1.773215    1.321619
H     2.421722    -1.616168    1.294737
H     2.500727    1.567130    -1.344915
H     4.990388    1.540899    -1.442128
C     -0.142862    -5.041705    -0.727509
C     -0.972961    -4.415562    0.202710
C     -0.877106    -3.037377    0.363757
N     -0.010579    -2.274392    -0.332552
C     0.791034    -2.889535    -1.225147
C     0.755791    -4.261236    -1.456274
H     -0.193983    -6.115197    -0.880957
H     -1.685153    -4.980845    0.794342
H     -1.513544    -2.514236    1.070751
H     1.485708    -2.252671    -1.764697
H     1.420592    -4.704869    -2.190174
C     -5.091719    -0.112465    -0.012832
C     -4.355948    -0.672881    -1.057738
C     -2.967552    -0.600147    -1.011542
N     -2.294397    -0.007511    -0.004912
C     -3.015061    0.535349    0.996854
C     -4.405630    0.503834    1.034680
H     -6.176658    -0.153861    -0.016376
H     -4.845332    -1.160266    -1.894591
H     -2.361821    -1.031507    -1.802616
H     -2.447622    1.014188    1.789584
H     -4.934856    0.955149    1.867335
