26

Mn     -0.001800    0.002514    0.076516
C     0.405460    1.919545    0.002827
O     0.649814    3.021357    -0.072883
C     1.904559    -0.488436    0.041547
O     3.000032    -0.765846    0.006894
C     -0.411075    -1.917283    0.002599
O     -0.655165    -3.019088    -0.074789
C     -1.908206    0.494637    0.041240
O     -3.002511    0.776339    0.007145
C     0.000097    0.001646    -1.951546
N     0.001531    0.000657    -3.109975
C     0.004702    -0.006825    -4.544968
H     -0.637373    -0.822855    -4.888235
H     1.029742    -0.166651    -4.889942
H     -0.373183    0.953426    -4.904780
C     -0.000143    0.000171    4.926349
C     -0.548094    1.070906    4.214817
C     -0.531806    1.039325    2.829136
N     -0.001532    0.003868    2.120972
C     0.529450    -1.033108    2.826155
C     0.547163    -1.068652    4.211566
H     0.001114    -0.001075    6.012058
H     -0.987701    1.923314    4.722256
H     -0.955359    1.860873    2.263687
H     0.953134    -1.852355    2.257702
H     0.986548    -1.923090    4.715747
