42

Mn     0.000532    0.026222    -0.180326
C     0.116469    -0.017327    -2.107309
O     0.149831    -0.022933    -3.240890
O     -0.311530    0.114780    1.866833
H     0.244023    0.644420    2.465339
H     -1.243150    0.285687    2.109387
O     -0.015901    2.105112    -0.242213
C     -0.778863    2.930159    -1.091209
C     -0.502493    4.221883    -0.821340
C     0.482325    4.244176    0.232548
C     0.755693    2.964940    0.560012
H     -1.446122    2.421518    -1.768621
H     -0.941946    5.079330    -1.313139
H     1.450849    2.486845    1.230867
H     0.931257    5.121547    0.678483
O     2.026685    0.037623    0.123333
C     2.701259    -0.667447    1.137952
C     4.012213    -0.354715    1.094051
C     4.202045    0.584182    0.014746
C     2.998568    0.798427    -0.553212
H     2.095363    -1.350783    1.710902
H     4.778916    -0.751660    1.745571
H     2.635760    1.414839    -1.359914
H     5.136142    1.033492    -0.294884
O     0.063986    -2.063677    -0.042572
C     -0.250784    -2.825720    1.098590
C     0.007588    -4.126110    0.852170
C     0.518376    -4.221203    -0.492842
C     0.543381    -2.974201    -1.003437
H     -0.640596    -2.271777    1.934149
H     -0.147430    -4.944360    1.542757
H     0.857148    -2.552882    -1.944513
H     0.831055    -5.121547    -1.004854
O     -2.106531    -0.041213    -0.310676
C     -2.872460    -1.146807    -0.709611
C     -4.142242    -0.994006    -0.279349
C     -4.210175    0.257682    0.429844
C     -2.976727    0.808943    0.403558
H     -2.343254    -1.911387    -1.254871
H     -4.955860    -1.685598    -0.450938
H     -2.566531    1.766718    0.683767
H     -5.087543    0.695947    0.886974
