23

Mn     -0.031952    -0.237530    0.011479
P     0.352645    2.190499    -0.241336
H     -0.267446    2.779357    -1.363454
H     1.643499    2.743583    -0.376682
H     -0.149116    3.036720    0.770479
P     2.414336    -0.593519    0.230973
H     3.321910    0.216979    -0.483221
H     2.960586    -1.857752    -0.077765
H     2.935783    -0.433619    1.531459
P     -0.423050    -2.669737    0.251788
H     0.019110    -3.497021    -0.803035
H     -1.712392    -3.212668    0.437235
H     0.242297    -3.293769    1.327584
P     -2.484317    0.085756    -0.193170
H     -3.127955    -0.548744    -1.276012
H     -3.022283    1.381792    -0.339193
H     -3.303112    -0.377357    0.858667
O     -0.121105    -0.111167    2.087996
H     -0.864646    -0.435454    2.626496
H     0.288650    0.609265    2.598734
O     0.053820    -0.355053    -2.066468
H     -0.347320    -1.073907    -2.586280
H     0.793831    -0.015012    -2.600070
