25
03/24/2023 16:57, XYZ structure generated by mol3D Class, molSimplify
Mn     -0.009733    -0.004658    -0.003660
N     -0.255621    2.106398    0.363337
H     -1.239037    2.354114    0.495392
H     0.221154    2.470788    1.192402
H     0.055232    2.710646    -0.402103
N     2.126923    0.223777    -0.260858
H     2.426289    1.202418    -0.246673
H     2.691722    -0.230128    0.461708
H     2.491384    -0.141629    -1.144844
N     0.215923    -2.121227    -0.370402
H     1.188906    -2.387217    -0.541208
H     -0.074280    -2.716293    0.410616
H     -0.303263    -2.485508    -1.174152
N     -2.141389    -0.260605    0.273859
H     -2.382419    -1.246339    0.405197
H     -2.550883    0.212632    1.084237
H     -2.718148    0.037076    -0.517277
N     0.330099    -0.241302    2.120930
H     -0.454204    0.053084    2.708584
H     0.515652    -1.206293    2.406060
H     1.131337    0.288299    2.474120
N     -0.278737    0.298965    -2.126187
H     -1.243966    0.495466    -2.401719
H     0.257996    1.085543    -2.502334
H     -0.000904    -0.497980    -2.705019
