29

Mn     -0.178802    0.060104    0.022587
N     0.698030    1.829975    -0.298225
C     1.210817    2.854783    -0.460653
C     1.856365    4.143973    -0.653184
H     1.138793    4.860543    -1.067328
H     2.227607    4.519994    0.306155
H     2.695386    4.040229    -1.349572
N     1.598029    -0.842946    -0.158772
C     2.626457    -1.363762    -0.262417
C     3.917554    -2.019557    -0.398503
H     4.164501    -2.141157    -1.458565
H     4.694262    -1.419403    0.087813
H     3.881996    -3.005544    0.077241
N     -1.060066    -1.708462    0.352953
C     -1.583101    -2.722333    0.548800
C     -2.240066    -3.997137    0.792617
H     -3.057530    -4.138416    0.077348
H     -1.517228    -4.811592    0.672492
H     -2.641314    -4.023302    1.811386
N     -1.954241    0.967401    0.197482
C     -2.984187    1.487641    0.287448
C     -4.279195    2.140187    0.399276
H     -4.575083    2.207583    1.451585
H     -4.221424    3.149483    -0.022928
H     -5.031625    1.566809    -0.152987
C     0.122850    0.294006    1.928174
O     0.303665    0.437019    3.037956
C     -0.474427    -0.175727    -1.882682
O     -0.644096    -0.321275    -2.993920
