19

Mn     0.072282    0.066215    0.108320
S     -0.200197    2.584288    -0.004348
H     -1.432267    2.806744    -0.511175
H     0.455165    3.018883    -1.102390
S     2.497569    0.486561    -0.385187
H     3.172929    -0.191450    0.567735
H     2.869347    -0.344526    -1.384436
S     0.551173    -2.365394    0.474249
H     -0.583960    -3.062430    0.695199
H     0.816145    -2.954197    -0.712597
S     -2.388227    -0.115553    0.523846
H     -2.760416    -1.411672    0.457760
H     -2.606004    -0.007061    1.853101
S     0.382721    0.479813    2.579700
H     1.316757    1.445349    2.723724
H     1.167161    -0.509878    3.060529
S     -0.249454    -0.374433    -2.333514
H     -0.549528    0.799310    -2.930335
H     -1.485646    -0.890225    -2.509838
