19
03/24/2023 16:57, XYZ structure generated by mol3D Class, molSimplify
Mn     -0.000053    0.000073    0.000003
O     -0.471648    1.965120    0.447724
H     -0.458436    2.692462    -0.199546
H     -0.131156    2.328376    1.285860
O     1.988278    0.334355    -0.460509
H     2.583478    0.989760    -0.055323
H     2.513125    -0.471886    -0.618408
O     0.471279    -1.965004    -0.448028
H     0.130410    -2.328010    -1.286118
H     0.458157    -2.692475    0.199100
O     -1.988337    -0.334498    0.460951
H     -2.513261    0.471713    0.618777
H     -2.583515    -0.989974    0.055848
O     0.314670    -0.166771    2.048923
H     1.086182    -0.541627    2.508779
H     -0.471857    -0.389420    2.578844
O     -0.314280    0.166736    -2.049057
H     -1.085547    0.541733    -2.509214
H     0.472503    0.389375    -2.578599
