14

Mn     0.000015    -0.000019    0.155838
C     -0.001261    2.430127    -0.023688
O     -0.002508    3.554010    -0.078928
C     2.441804    -0.001100    -0.008960
O     3.562309    -0.002856    -0.111292
C     0.001261    -2.430099    -0.023792
O     0.002511    -3.553983    -0.078856
C     -2.441865    0.001100    -0.008302
O     -3.562279    0.002852    -0.111733
C     0.000154    -0.000085    -2.349560
O     -0.000054    0.000042    -3.475178
O     -0.000055    0.000047    2.280581
H     0.775571    0.051307    2.874047
H     -0.775603    -0.051344    2.874149
