38

Mn     -0.000481    0.001621    0.420153
C     -0.000041    0.001929    -2.335898
O     -0.001640    0.001468    -3.467196
C     0.019020    2.318297    0.064629
N     0.024452    3.459936    -0.155262
C     0.032076    4.864068    -0.432687
H     0.857116    5.087856    -1.113184
H     0.164348    5.412585    0.503002
H     -0.918245    5.141763    -0.895197
C     2.306302    -0.019689    0.124223
N     3.462365    -0.015518    0.004999
C     4.884964    -0.006755    -0.145914
H     5.179816    -0.830827    -0.800003
H     5.349112    -0.126425    0.835982
H     5.190745    0.944422    -0.588267
C     -0.020264    -2.315525    0.064582
N     -0.025368    -3.457167    -0.155181
C     -0.032380    -4.861317    -0.432058
H     -0.857214    -5.085776    -1.112485
H     -0.164474    -5.409452    0.503803
H     0.918066    -5.138814    -0.894297
C     -2.307132    0.020079    0.121571
N     -3.462909    0.013340    -0.000357
C     -4.885257    0.001715    -0.154326
H     -5.145813    -0.623906    -1.011490
H     -5.234941    1.023262    -0.321894
H     -5.339428    -0.403088    0.753309
C     0.000462    -0.000025    5.429527
C     -0.165510    1.189637    4.719145
C     -0.160997    1.145957    3.330351
N     0.000827    0.001152    2.630775
C     0.162644    -1.144216    3.329450
C     0.166482    -1.189113    4.718192
H     0.000425    -0.000432    6.515116
H     -0.296382    2.138218    5.229045
H     -0.290173    2.050098    2.744887
H     0.292051    -2.047885    2.743337
H     0.296773    -2.138161    5.227358
