41

Mn     -0.036397    0.089907    0.027240
C     0.036439    0.121241    2.011245
O     0.074322    0.167805    3.141557
C     -0.086300    0.188013    -1.963813
O     -0.100417    0.299196    -3.089630
O     -0.035219    2.173036    -0.001298
C     -1.064736    2.970863    -0.542898
C     -0.696097    4.265452    -0.491018
C     0.619910    4.320686    0.095207
C     0.992545    3.057680    0.378897
H     -1.947676    2.442465    -0.858710
H     -1.289250    5.104804    -0.828374
H     1.886480    2.599231    0.763812
H     1.210383    5.208561    0.275825
O     2.056754    -0.030458    0.025598
C     2.977003    0.251272    1.060210
C     4.194752    -0.211682    0.715369
C     4.073722    -0.830144    -0.580692
C     2.788384    -0.712509    -0.965058
H     2.593226    0.789334    1.911142
H     5.094693    -0.125992    1.309499
H     2.228522    -1.041239    -1.824371
H     4.863718    -1.302995    -1.148512
O     -0.020834    -1.974833    0.001463
C     0.761239    -2.788222    0.845884
C     0.678806    -4.068689    0.436617
C     -0.179058    -4.099984    -0.722252
C     -0.579629    -2.836780    -0.962463
H     1.298500    -2.279990    1.629541
H     1.165691    -4.914867    0.902192
H     -1.248983    -2.385876    -1.673876
H     -0.460481    -4.972553    -1.296884
O     -2.128604    0.114459    0.067169
C     -2.926392    0.456783    1.181601
C     -4.224599    0.257974    0.886658
C     -4.291833    -0.224854    -0.470137
C     -3.030607    -0.299058    -0.935678
H     -2.406005    0.845938    2.039918
H     -5.059086    0.438402    1.550969
H     -2.597113    -0.585396    -1.878394
H     -5.186265    -0.477261    -1.023618
