25

Mn     0.002501    -0.097245    -0.027050
S     -0.102917    2.303772    0.330450
H     -0.598521    2.370854    1.586882
N     1.691088    2.417085    0.880513
H     1.890255    3.410123    1.052950
N     2.548940    2.003626    -0.124893
H     2.602952    2.581043    -0.969114
S     2.377888    0.339864    -0.541521
H     3.134135    -0.159548    0.464564
S     0.354236    -2.498684    -0.299545
H     -0.846154    -3.123382    -0.323037
N     0.850607    -3.015266    1.309485
H     1.858774    -3.162068    1.305862
N     0.455637    -2.285777    2.409883
H     -0.452726    -2.598011    2.751585
S     0.434513    -0.528001    2.300486
H     1.738829    -0.307107    2.581757
S     -2.375394    -0.510761    0.322541
H     -2.825385    0.500150    1.101109
N     -3.152527    0.031808    -1.204817
H     -3.534179    -0.790782    -1.672629
N     -2.425696    0.798189    -2.066240
H     -2.353445    1.747652    -1.694940
S     -0.736346    0.175758    -2.333246
H     -0.256245    1.316750    -2.879165
