20

Mn     0.025948    0.009412    -0.000295
O     0.425644    2.082293    -0.127533
H     1.175096    2.401145    -0.660913
H     -0.263766    2.768050    -0.177362
O     2.071005    -0.224100    -0.259417
H     2.526450    -0.494777    -1.074479
H     2.661674    -0.444131    0.481856
O     -0.227712    -1.996930    0.538928
H     0.142392    -2.752364    0.048701
H     -1.137556    -2.249281    0.782610
O     -1.981609    0.236951    0.425475
H     -2.202349    0.527756    1.328892
H     -2.723052    0.472087    -0.157976
O     0.178055    0.354016    2.035001
H     0.635745    1.158720    2.337668
H     0.397287    -0.365931    2.653079
P     -0.352031    -0.315046    -2.440326
H     0.755640    -0.380927    -3.312957
H     -1.046011    -1.467026    -2.864348
H     -1.103408    0.670686    -3.113424
