33

Mn     0.001263    -0.006379    0.039023
C     0.385126    1.913876    -0.258509
N     0.601059    3.045292    -0.429660
C     0.867035    4.436272    -0.638608
H     1.854379    4.548888    -1.093272
H     0.844620    4.952511    0.324496
H     0.103707    4.854085    -1.299427
C     1.940733    -0.234903    0.373157
N     3.079342    -0.381818    0.565489
C     4.479894    -0.558672    0.802361
H     4.792212    -1.526350    0.401864
H     4.667418    -0.529185    1.878718
H     5.033738    0.243454    0.308612
C     -0.367620    -1.930486    0.332391
N     -0.566795    -3.065023    0.500400
C     -0.809013    -4.461021    0.704594
H     -1.454810    -4.834984    -0.093642
H     -1.299116    -4.601402    1.671351
H     0.143735    -4.995928    0.693246
C     -1.939464    0.211990    -0.293362
N     -3.080436    0.349177    -0.481447
C     -4.483688    0.519156    -0.707858
H     -4.752447    1.562594    -0.525711
H     -5.039755    -0.131842    -0.028858
H     -4.713895    0.255450    -1.743283
P     -0.354471    0.397877    2.403733
H     0.760901    0.612625    3.237331
H     -1.112199    1.543878    2.718266
H     -1.050017    -0.563838    3.163024
P     0.309338    -0.354883    -2.343931
H     1.617219    -0.326518    -2.868022
H     -0.161947    -1.548028    -2.927353
H     -0.308546    0.586813    -3.190308
