17

Mn     -0.021538    -0.015953    -0.002148
C     -0.384301    1.908796    -0.316836
O     -0.599163    3.002512    -0.498591
C     1.927731    0.236581    0.291595
O     3.034487    0.375062    0.466894
C     0.316635    -1.952731    0.311175
O     0.506398    -3.050897    0.492113
C     -1.972392    -0.288863    -0.291237
O     -3.077352    -0.446746    -0.460775
N     -0.305007    0.286805    2.073637
H     -1.292241    0.362907    2.337793
H     0.081182    -0.453633    2.668331
H     0.126476    1.153864    2.413378
N     0.359305    -0.245681    -2.071156
H     -0.484890    -0.194094    -2.649997
H     0.985275    0.474665    -2.448653
H     0.801229    -1.137750    -2.315495
