25

Mn     -0.031040    -0.039926    0.152280
N     -0.334593    2.259347    0.392782
H     -1.323974    2.517947    0.418974
H     0.058920    2.648192    1.253635
H     0.064044    2.823036    -0.362141
N     2.268721    0.258307    0.358602
H     2.531148    1.246558    0.327688
H     2.680289    -0.094106    1.226788
H     2.811457    -0.181737    -0.388710
N     0.334859    -2.320787    -0.146818
H     1.176443    -2.673071    0.316358
H     -0.418256    -2.936178    0.170852
H     0.462944    -2.549728    -1.135561
N     -2.286702    -0.301376    -0.345144
H     -2.505660    -1.233968    -0.704485
H     -2.916489    -0.177896    0.452075
H     -2.631403    0.342089    -1.061843
N     -0.383390    -0.331486    2.434504
H     -1.195777    0.162307    2.812661
H     -0.533007    -1.313212    2.680131
H     0.400882    -0.031961    3.019257
P     0.369976    0.397850    -2.806178
H     1.279896    1.383160    -3.254605
H     0.827133    -0.653120    -3.634800
H     -0.725596    0.789855    -3.609626
