60

Mn     0.044270    0.064356    0.064196
C     0.477329    -0.092327    2.398099
N     0.743211    -0.185605    3.527106
C     1.076907    -0.304331    4.913631
H     1.865234    -1.052245    5.028284
H     0.188889    -0.611007    5.471472
H     1.428561    0.662617    5.281231
O     -0.284679    0.073209    -2.410854
C     0.704964    0.063119    -3.384904
C     0.141440    0.106102    -4.615505
C     -1.282682    0.148753    -4.421771
C     -1.497131    0.125469    -3.085165
H     1.721000    0.031855    -3.027929
H     0.669172    0.110064    -5.559157
H     -2.378604    0.135893    -2.465663
H     -2.042156    0.190781    -5.189986
C     -0.348661    5.147050    0.087242
C     0.234881    4.464871    1.156380
C     0.336253    3.079795    1.090172
N     -0.106521    2.356374    0.038579
C     -0.666040    3.026844    -0.991655
C     -0.805698    4.411204    -1.006132
H     -0.443954    6.228449    0.105645
H     0.608868    4.993416    2.026915
H     0.783949    2.516925    1.903538
H     -1.008917    2.426400    -1.826486
H     -1.264110    4.897691    -1.860701
C     5.084470    0.212581    -0.570220
C     4.448957    -0.931018    -0.084862
C     3.061697    -0.935925    0.014902
N     2.294182    0.118340    -0.336175
C     2.920171    1.221430    -0.800909
C     4.301601    1.308309    -0.936167
H     6.165776    0.249667    -0.662141
H     5.015055    -1.808018    0.211411
H     2.529741    -1.807559    0.380432
H     2.280527    2.052281    -1.076318
H     4.749939    2.218501    -1.319986
C     -0.028768    -5.101899    -0.269512
C     -0.327767    -4.452442    0.929256
C     -0.277392    -3.062970    0.968797
N     0.055856    -2.303457    -0.097017
C     0.338556    -2.943485    -1.252668
C     0.307434    -4.328929    -1.381086
H     -0.057432    -6.185294    -0.335712
H     -0.598538    -5.008702    1.820710
H     -0.512624    -2.528532    1.884039
H     0.600115    -2.318866    -2.099296
H     0.542644    -4.785943    -2.336617
C     -4.962719    -0.262293    0.960884
C     -4.214632    0.817027    1.431402
C     -2.861940    0.884847    1.115006
N     -2.230450    -0.050895    0.374338
C     -2.963361    -1.094550    -0.070315
C     -4.322008    -1.234991    0.192496
H     -6.021389    -0.343917    1.187583
H     -4.667853    1.598115    2.032782
H     -2.255475    1.715993    1.458319
H     -2.429192    -1.833675    -0.657018
H     -4.861638    -2.091771    -0.196772
