31

Mn     -0.187126    0.253554    -0.290616
S     -0.707646    2.745526    -0.009254
H     -0.613816    2.918520    1.326354
P     0.894121    4.183058    -0.582486
H     0.891298    3.723926    -1.927085
H     -0.009440    5.244720    -0.855307
S     2.249958    0.767397    -0.058002
H     2.253827    1.431801    1.116641
P     3.484766    -0.954196    0.628048
H     3.503760    -1.520940    -0.675274
H     4.722424    -0.283038    0.435264
S     0.064210    -2.253383    -0.816036
H     1.111068    -2.329993    -1.660326
P     0.689495    -3.887384    0.538375
H     0.491539    -3.160099    1.743924
H     -0.596088    -4.488255    0.577085
S     -2.645522    -0.059265    -0.789605
H     -2.853346    -1.370066    -0.544573
P     -4.116488    0.722727    0.691290
H     -3.530862    2.016916    0.670748
H     -5.082547    1.055156    -0.295662
S     -0.752039    -0.053509    2.165539
H     -1.450648    -1.205946    2.151905
P     0.733762    -0.676305    3.693684
H     1.705576    0.262260    3.251272
H     0.232857    0.194831    4.697563
S     0.124577    0.780114    -2.750587
H     1.437918    0.577335    -2.985216
P     -0.650302    -0.659107    -4.261158
H     -1.911285    -0.753635    -3.613706
H     -1.091049    0.353760    -5.153669
