25

Mn     -0.006254    -0.059191    0.176949
O     -0.339349    2.181504    0.185006
H     0.303501    2.878474    -0.033387
H     -1.214177    2.607583    0.204274
O     2.136408    0.152646    -0.173335
H     2.451348    0.288415    -1.084165
H     2.866188    0.390145    0.424811
O     0.391221    -2.210602    0.319543
H     1.282596    -2.575211    0.456743
H     -0.235994    -2.949975    0.398361
O     -2.127922    -0.344734    -0.147251
H     -2.862052    -0.528890    0.464142
H     -2.455945    -0.495293    -1.051287
O     0.007218    0.285388    2.314716
H     -0.055260    1.195440    2.651889
H     0.090428    -0.307613    3.081195
O     -0.024155    -0.058172    -2.122050
C     0.473338    -1.060844    -2.964810
C     0.299248    -0.698357    -4.253944
C     -0.343179    0.591994    -4.252023
C     -0.522576    0.946375    -2.961549
H     0.860233    -1.932933    -2.461980
H     0.586588    -1.274889    -5.122477
H     -0.930320    1.807287    -2.456742
H     -0.631861    1.171253    -5.118555
