28

Mn     0.056164    -0.039091    0.080775
O     0.517085    1.936502    -0.257226
H     0.326723    2.260332    -1.157284
H     0.346466    2.670913    0.357903
O     2.046723    -0.401202    -0.376477
H     2.512687    0.427820    -0.596323
H     2.609252    -0.850441    0.279837
O     -0.361330    -2.035751    0.113355
H     -0.162897    -2.604518    -0.652278
H     -0.419636    -2.610482    0.896635
O     -1.970169    0.368983    0.232315
H     -2.354572    0.675683    1.073614
H     -2.540710    -0.365033    -0.064380
C     0.291996    0.094252    2.040931
N     0.432320    0.190183    3.192536
C     0.606511    0.326884    4.610523
H     1.341729    -0.405780    4.952799
H     -0.352089    0.152454    5.105671
H     0.958479    1.338219    4.828575
O     -0.193720    -0.077095    -2.055298
C     0.565323    -0.760697    -3.015276
C     0.023370    -0.571972    -4.237768
C     -1.136441    0.263557    -4.070072
C     -1.243736    0.541806    -2.752865
H     1.445816    -1.259378    -2.646549
H     0.404214    -0.969321    -5.168472
H     -1.946165    1.095558    -2.151320
H     -1.804122    0.607415    -4.848490
