39

Mn     0.017296    0.005855    0.000439
P     -0.453146    2.817446    -0.410865
H     -0.641572    3.691068    0.682553
H     -1.579830    3.203133    -1.171015
H     0.511562    3.588117    -1.098194
P     2.815738    0.351582    -0.501988
H     3.446064    -0.523012    -1.414596
H     3.753431    0.253278    0.549275
H     3.278083    1.569326    -1.049934
P     0.447172    -2.808748    0.436091
H     -0.086228    -3.771185    -0.449417
H     -0.009401    -3.379601    1.644736
H     1.768874    -3.308425    0.474432
P     -2.798221    -0.388691    0.473427
H     -3.654699    -0.775127    -0.580830
H     -3.573533    0.690878    0.953928
H     -3.207640    -1.349869    1.424737
C     0.652501    0.719408    4.961829
C     -0.387384    1.352504    4.279654
C     -0.523838    1.134584    2.913668
N     0.304124    0.334486    2.204730
C     1.307668    -0.271158    2.878705
C     1.515476    -0.109246    4.243293
H     0.787303    0.868382    6.028734
H     -1.084236    2.005984    4.793717
H     -1.324875    1.615478    2.361297
H     1.969096    -0.906406    2.297713
H     2.339049    -0.622643    4.728133
C     -0.661919    -0.714759    -4.956610
C     0.120763    0.341252    -4.487218
C     0.273976    0.503041    -3.115478
N     -0.300789    -0.313987    -2.203283
C     -1.055136    -1.332421    -2.672587
C     -1.260171    -1.566755    -4.027418
H     -0.802144    -0.869911    -6.021929
H     0.606658    1.030601    -5.169562
H     0.878989    1.316605    -2.726331
H     -1.511648    -1.979792    -1.931058
H     -1.877343    -2.401355    -4.342748
