53

Mn     0.002302    -0.104359    -0.018158
C     0.018370    4.831379    0.406823
C     0.824957    4.194095    -0.536128
C     0.808158    2.805302    -0.609529
N     0.032756    2.026337    0.180787
C     -0.746215    2.659759    1.086803
C     -0.779046    4.042594    1.236148
H     0.011646    5.913405    0.493861
H     1.464146    4.759496    -1.206124
H     1.448606    2.285088    -1.313862
H     -1.381284    2.030191    1.701016
H     -1.425783    4.486486    1.985705
C     4.936883    -0.068323    -0.451648
C     4.296607    0.732669    0.494308
C     2.907773    0.708890    0.568957
N     2.131638    -0.068879    -0.221978
C     2.768140    -0.841191    -1.131710
C     4.150859    -0.865216    -1.284270
H     6.018907    -0.071526    -0.538784
H     4.859547    1.373228    1.165365
H     2.383987    1.345726    1.274003
H     2.141870    -1.478698    -1.747065
H     4.596006    -1.505180    -2.039105
C     -0.065214    -5.022243    -0.619368
C     0.898283    -4.416249    0.187419
C     0.882124    -3.032856    0.330278
N     -0.031595    -2.233439    -0.265666
C     -0.960121    -2.836661    -1.040831
C     -1.010767    -4.210773    -1.247396
H     -0.078444    -6.099308    -0.754583
H     1.656295    -5.000752    0.698220
H     1.634136    -2.536660    0.933684
H     -1.699551    -2.186518    -1.493844
H     -1.782559    -4.629887    -1.884422
C     -4.918189    -0.143474    0.583721
C     -4.111095    -1.074447    1.238457
C     -2.736321    -1.035891    1.031528
N     -2.127924    -0.130615    0.233273
C     -2.923379    0.770472    -0.386601
C     -4.306924    0.795396    -0.247419
H     -5.995497    -0.148610    0.718070
H     -4.535561    -1.824899    1.897144
H     -2.091324    -1.767296    1.504476
H     -2.423913    1.505345    -1.007652
H     -4.887640    1.541638    -0.779291
N     0.286720    -0.388385    2.068737
H     1.285603    -0.428956    2.275283
H     -0.112333    -1.251092    2.442472
H     -0.087126    0.369258    2.643532
N     -0.277308    0.171165    -2.105347
H     -1.129377    -0.241012    -2.488801
H     0.492002    -0.201873    -2.664536
H     -0.323331    1.167772    -2.322554
