29

Mn     0.000196    0.000897    -0.000548
C     0.261442    1.894223    0.297627
N     0.417804    3.038972    0.482276
C     0.610004    4.423022    0.713853
H     1.273304    4.839369    -0.050522
H     1.058215    4.574547    1.700660
H     -0.350643    4.945711    0.673330
C     1.878350    -0.330184    -0.323053
N     3.015107    -0.530246    -0.514745
C     4.392209    -0.770851    -0.742495
H     4.532398    -1.224795    -1.728357
H     4.782764    -1.446789    0.024458
H     4.946736    0.171768    -0.702587
C     -0.260292    -1.893281    -0.293904
N     -0.415615    -3.039422    -0.470483
C     -0.603076    -4.427631    -0.680061
H     -1.570028    -4.604454    -1.161033
H     -0.577638    -4.953431    0.279367
H     0.190532    -4.818461    -1.324355
C     -1.878300    0.332948    0.318424
N     -3.015697    0.534334    0.504963
C     -4.395225    0.774108    0.718398
H     -4.536779    1.752529    1.187797
H     -4.809732    0.002296    1.374208
H     -4.926008    0.756267    -0.238469
C     0.284305    -0.333557    1.943838
N     0.452902    -0.529130    3.086113
C     -0.284073    0.334213    -1.944918
N     -0.452875    0.528001    -3.087461
