26

Mn     0.143232    0.007327    0.071676
C     0.396473    -0.041316    -1.861843
O     0.560293    -0.092259    -2.984536
O     -0.233885    2.073984    0.046943
H     0.552212    2.617394    0.244903
H     -0.671783    2.505210    -0.709566
O     2.109443    0.454929    0.399437
H     2.877564    0.237310    -0.158126
H     2.400749    0.432715    1.328860
O     0.510986    -2.068213    0.065618
H     0.999868    -2.531278    -0.638836
H     -0.271145    -2.618857    0.256919
O     -1.848540    -0.394842    -0.065363
H     -2.449039    -0.139041    0.658200
H     -2.381906    -0.481078    -0.875704
C     -0.362437    -0.005694    4.915060
C     -0.913675    1.024721    4.151868
C     -0.756148    1.003459    2.771375
N     -0.091180    0.013895    2.124219
C     0.439654    -0.984755    2.874499
C     0.329040    -1.026073    4.259181
H     -0.468879    -0.012116    5.995555
H     -1.455596    1.842351    4.615311
H     -1.154088    1.799653    2.153593
H     0.958137    -1.767145    2.331520
H     0.778563    -1.847634    4.806976
