52

Mn     0.001531    -0.000739    0.147222
C     -0.692112    5.047519    -0.212831
C     -0.462696    4.215364    -1.307689
C     -0.289028    2.850619    -1.092469
N     -0.332880    2.299895    0.137295
C     -0.552196    3.108929    1.187362
C     -0.737641    4.482094    1.062104
H     -0.832520    6.115943    -0.348731
H     -0.418997    4.611488    -2.317031
H     -0.112949    2.142805    -1.895831
H     -0.575935    2.623549    2.158489
H     -0.913457    5.090696    1.943334
C     5.050076    0.690255    -0.210354
C     4.484176    0.732873    1.064469
C     3.110785    0.548333    1.188646
N     2.302054    0.332563    0.137632
C     2.853249    0.291227    -1.091991
C     4.218222    0.464333    -1.306179
H     6.118681    0.830082    -0.345425
H     5.092602    0.905638    1.946422
H     2.624946    0.569586    2.159620
H     2.145689    0.117232    -1.896033
H     4.614792    0.422797    -2.315436
C     0.695218    -5.048780    -0.209801
C     0.741246    -4.482208    1.064607
C     0.555766    -3.108934    1.188647
N     0.335968    -2.300956    0.137919
C     0.291688    -2.852734    -1.091332
C     0.465347    -4.217662    -1.305367
H     0.835633    -6.117320    -0.344768
H     0.917484    -5.090031    1.946289
H     0.579921    -2.622487    2.159269
H     0.115367    -2.145666    -1.895301
H     0.421311    -4.614757    -2.314311
C     -5.046388    -0.696758    -0.213128
C     -4.214795    -0.463604    -1.307631
C     -2.850103    -0.289526    -1.092392
N     -2.298969    -0.336282    0.137069
C     -3.107410    -0.559425    1.186753
C     -4.480469    -0.745642    1.061464
H     -6.114745    -0.837636    -0.349062
H     -4.611307    -0.417454    -2.316711
H     -2.142649    -0.111227    -1.895580
H     -2.621547    -0.586062    2.157591
H     -5.088606    -0.924764    1.942350
N     0.001974    -0.000782    2.692124
C     -0.005906    0.006821    3.851731
C     -0.015951    0.016015    5.310986
H     -1.013719    0.277271    5.676808
H     0.254705    -0.972928    5.693474
H     0.703155    0.750820    5.685951
F     0.001419    -0.000357    -1.806953
