35

Mn     -0.051413    0.058763    0.131670
C     0.484432    3.269709    0.502796
N     0.280528    2.144260    0.299441
C     0.738617    4.676566    0.756776
H     0.421883    5.275117    -0.105784
H     1.809416    4.836492    0.929758
H     0.178668    5.001705    1.641685
C     3.167792    -0.436034    -0.438456
N     2.030039    -0.245350    -0.303299
C     4.590832    -0.673041    -0.610826
H     5.137352    0.275072    -0.547285
H     4.777194    -1.129335    -1.590194
H     4.953086    -1.349123    0.172434
C     -0.567611    -3.133127    -0.387827
N     -0.397271    -1.990106    -0.271501
C     -0.780994    -4.562026    -0.535655
H     0.177656    -5.066787    -0.703535
H     -1.442172    -4.754776    -1.388931
H     -1.244739    -4.964286    0.372839
C     -3.300406    0.531496    0.517977
N     -2.166671    0.381988    0.312644
C     -4.717713    0.719169    0.774795
H     -5.078778    -0.061015    1.455200
H     -5.278695    0.660062    -0.165451
H     -4.886938    1.701176    1.231832
C     0.378144    -0.435891    3.217591
N     0.219120    -0.253466    2.081551
C     0.576573    -0.664625    4.635808
H     -0.377832    -0.932777    5.105227
H     0.967133    0.245128    5.107783
H     1.292356    -1.482598    4.782995
P     -0.412474    0.509604    -2.301374
H     0.778725    0.782094    -2.993314
H     -1.015906    -0.564198    -2.975623
H     -1.246397    1.617872    -2.517548
