17

Mn     0.000435    -0.000318    -0.099509
C     -0.096644    2.030156    -0.019894
O     -0.140104    3.151514    0.016966
C     2.030953    -0.098525    -0.018229
O     3.152383    -0.141763    0.019902
C     0.096827    -2.031147    -0.020751
O     0.140515    -3.152544    0.016322
C     -2.030364    0.096619    -0.020199
O     -3.151726    0.140850    0.016900
C     -0.000016    -0.000267    2.023619
O     -0.000301    0.000309    3.145576
C     -0.000832    0.001894    -2.039914
N     0.001235    0.007769    -3.210480
C     0.008788    0.031826    -4.616650
H     -0.590717    -0.842651    -4.978645
H     1.036169    -0.149184    -4.983481
H     -0.456602    0.955462    -4.987178
