52

Mn     0.025909    0.020664    -0.019320
C     0.058641    0.017899    2.025224
N     0.077195    0.026649    3.184764
C     0.096240    0.047610    4.621595
H     0.797710    -0.712215    4.976862
H     -0.910011    -0.174578    4.987928
H     0.408162    1.040054    4.957072
O     0.028682    2.126473    -0.000462
C     0.941044    2.917202    0.722248
C     0.575201    4.216349    0.641157
C     -0.622766    4.278036    -0.151266
C     -0.934366    3.014414    -0.523415
H     1.753418    2.385334    1.190176
H     1.099407    5.051944    1.086719
H     -1.708869    2.569714    -1.127237
H     -1.175339    5.170521    -0.415278
O     2.535206    -0.026030    -0.080183
C     3.311310    -0.900658    0.673759
C     4.621157    -0.828349    0.283364
C     4.688132    0.131675    -0.763160
C     3.415128    0.596019    -0.958637
H     2.790592    -1.469066    1.428584
H     5.440629    -1.396628    0.703922
H     2.986177    1.325109    -1.628190
H     5.569342    0.449135    -1.305942
O     0.044163    -2.084443    -0.033023
C     -0.766907    -2.934608    0.741151
C     -0.387098    -4.219133    0.547009
C     0.715330    -4.208147    -0.374974
C     0.956754    -2.918093    -0.709318
H     -1.526036    -2.449310    1.333381
H     -0.838481    -5.090667    1.004338
H     1.652937    -2.423433    -1.366314
H     1.258530    -5.069376    -0.742582
O     -2.555374    0.047301    0.012041
C     -3.326090    0.881002    0.812948
C     -4.659644    0.695893    0.551437
C     -4.745241    -0.300997    -0.455545
C     -3.459337    -0.672798    -0.756010
H     -2.786007    1.515967    1.498540
H     -5.479633    1.213429    1.033821
H     -3.039762    -1.388649    -1.444581
H     -5.643861    -0.703588    -0.906131
O     -0.104753    0.030716    -2.092116
C     -0.540284    -1.018413    -2.927917
C     -0.424691    -0.645436    -4.221608
C     0.101706    0.692463    -4.241170
C     0.284385    1.075595    -2.958173
H     -0.853204    -1.918071    -2.426792
H     -0.680537    -1.252440    -5.080206
H     0.619284    1.978671    -2.476961
H     0.314919    1.289442    -5.118611
