17

Mn     0.001980    -0.000868    -0.133059
C     -0.095751    2.034060    -0.003982
O     -0.138081    3.154762    0.045529
C     2.036983    -0.098266    -0.005891
O     3.157739    -0.140407    0.042611
C     0.098979    -2.036645    -0.013457
O     0.141011    -3.157575    0.031073
C     -2.033740    0.095458    -0.009714
O     -3.154600    0.137167    0.036659
C     -0.001270    -0.006515    1.984683
O     -0.002641    -0.009070    3.106669
C     0.000670    0.014701    -3.169326
N     0.001375    0.002703    -1.982604
C     -0.000737    0.030756    -4.586583
H     1.034012    -0.059980    -4.978589
H     -0.517539    0.920677    -4.983348
H     -0.531219    -0.880858    -4.961280
