31
03/24/2023 16:57, XYZ structure generated by mol3D Class, molSimplify
Mn     0.007391    -0.022351    -0.023231
C     0.343292    2.423060    0.454734
H     -0.183271    2.764228    1.360904
N     0.972841    3.438098    -0.055760
H     1.533456    3.363736    -0.904529
H     0.964667    4.384935    0.339155
C     2.083795    -0.251142    -0.432079
H     2.630434    0.620577    -0.808002
N     2.864287    -1.273665    -0.305533
H     2.535116    -2.175895    0.037884
H     3.862570    -1.250014    -0.538122
C     -0.328928    -2.467599    -0.501444
H     0.197563    -2.808745    -1.407662
N     -0.958839    -3.482536    0.008801
H     -1.519429    -3.408087    0.857580
H     -0.950950    -4.429316    -0.386256
C     -2.068982    0.206128    0.385865
H     -2.615323    -0.665260    0.762975
N     -2.849792    1.228278    0.258221
H     -2.520871    2.130182    -0.086289
H     -3.848021    1.204662    0.491046
C     0.230310    -0.446212    2.051517
H     -0.288307    -1.328159    2.442339
N     0.897533    0.156253    2.980069
H     1.449195    0.995436    2.802112
H     0.920719    -0.164925    3.953477
C     -0.215351    0.401801    -2.098021
H     0.304435    1.282941    -2.489104
N     -0.883676    -0.199813    -3.026339
H     -1.436410    -1.038222    -2.848065
H     -0.906664    0.121230    -3.999797
