17

Mn     -0.011063    0.001577    -0.002394
Cl     0.339345    2.289273    0.348979
Cl     2.267836    -0.384462    0.369916
Cl     -0.360989    -2.286310    -0.354016
Cl     -2.289265    0.386635    -0.374087
C     -0.281276    -0.344574    1.900145
N     -0.430815    -0.564482    3.037551
C     -0.572303    -0.870627    4.407623
H     -0.001009    -1.773408    4.647723
H     -1.627030    -1.042056    4.646735
H     -0.199580    -0.040782    5.017151
C     0.263828    0.346770    -1.904431
N     0.421588    0.564955    -3.041041
C     0.587730    0.868768    -4.408886
H     0.022673    0.158611    -5.021629
H     1.647003    0.808331    -4.679570
H     0.225252    1.881890    -4.612070
