12

Mn     -0.142006    -0.141974    0.011173
C     -0.418033    1.713653    -0.788118
O     -0.587898    2.715823    -1.265930
C     1.713504    -0.418014    -0.788388
O     2.715611    -0.587879    -1.266333
C     0.161289    -1.963377    0.878878
O     0.309229    -2.985167    1.321233
C     -1.963331    0.161286    0.879043
O     -2.985089    0.309208    1.321479
C     0.779002    0.778857    1.718541
O     1.256580    1.256311    2.615950
F     -0.838852    -0.838719    -1.360267
