29

Mn     0.004578    -0.001164    0.001446
P     -0.431497    2.560124    0.430315
H     -1.672656    2.862943    1.022330
H     0.478849    3.191019    1.299862
H     -0.408216    3.382605    -0.711968
P     2.583196    0.392677    0.386115
H     3.090962    1.595441    -0.141387
H     2.990054    0.431646    1.733173
H     3.440171    -0.570933    -0.179525
P     0.411094    -2.584052    -0.313003
H     1.538667    -3.107941    0.347842
H     -0.624974    -3.418620    0.148164
H     0.595397    -3.001161    -1.644737
P     -2.562119    -0.350517    -0.489617
H     -2.886909    -1.462409    -1.290456
H     -3.371981    -0.528186    0.648027
H     -3.191805    0.707120    -1.173534
C     -0.325763    -0.368711    2.245628
N     -0.487669    -0.555895    3.380212
C     -0.688108    -0.787581    4.785901
H     0.106425    -1.444391    5.150411
H     -1.663818    -1.259869    4.928812
H     -0.653325    0.172365    5.308257
C     0.342713    0.362562    -2.241652
N     0.512804    0.542733    -3.376162
C     0.723386    0.765468    -4.781718
H     0.053782    0.110141    -5.345394
H     1.765341    0.536620    -5.021773
H     0.505767    1.812720    -5.008620
