32

Mn     -0.090565    -0.104308    0.065959
C     -0.323190    1.870203    -0.189644
N     -0.487234    2.994050    -0.418864
C     -0.700141    4.371286    -0.747495
H     -0.023154    4.649446    -1.558783
H     -0.499481    4.983694    0.134856
H     -1.737091    4.502197    -1.065849
C     1.856321    0.259796    -0.239464
N     2.973532    0.439305    -0.488944
C     4.346205    0.650941    -0.836741
H     4.676306    -0.168095    -1.480359
H     4.945056    0.672746    0.076970
H     4.436456    1.601927    -1.366876
C     0.155503    -2.065123    0.398379
N     0.299208    -3.209674    0.507734
C     0.471032    -4.628349    0.597586
H     -0.397524    -5.118290    0.150931
H     0.560324    -4.910277    1.649463
H     1.377435    -4.909636    0.056334
C     -2.024031    -0.459375    0.453750
N     -3.156693    -0.661251    0.590908
C     -4.560518    -0.915656    0.712134
H     -5.053832    -0.019593    1.095816
H     -4.714324    -1.751645    1.398464
H     -4.955712    -1.165576    -0.275788
C     0.204081    0.234827    2.073567
N     0.370099    0.425449    3.205458
C     0.574676    0.661170    4.602837
H     1.241534    -0.110374    4.996276
H     -0.389588    0.614221    5.114944
H     1.024261    1.647840    4.736693
F     -0.358270    -0.372900    -1.616424
