22

Mn     0.059822    -0.141953    -0.062262
O     0.396354    1.728331    0.258521
H     1.058671    2.277413    -0.217597
H     -0.210812    2.328272    0.746628
O     1.983530    -0.427831    -0.344112
H     2.484169    -0.475713    -1.184421
H     2.607833    -0.581496    0.396335
O     -0.260313    -2.026504    -0.282547
H     0.180127    -2.604585    -0.944548
H     -1.020394    -2.521578    0.098269
O     -1.837502    0.143777    0.312057
H     -2.228428    0.119252    1.211748
H     -2.549877    0.265262    -0.350217
O     0.186688    -0.415565    1.986769
H     0.610068    0.220862    2.598653
H     0.238141    -1.292051    2.420347
C     -0.089347    0.169261    -2.034554
N     -0.193303    0.384504    -3.166675
C     -0.328430    0.661602    -4.576032
H     -1.010223    -0.077172    -5.009660
H     0.660766    0.594402    -5.039676
H     -0.737542    1.671509    -4.688346
