23

Mn     -0.050028    0.038392    0.017690
P     -0.382645    2.517888    -0.373102
H     -1.559936    3.046464    0.192852
H     0.597520    3.411153    0.100285
H     -0.501780    2.891367    -1.726616
P     2.345577    0.581017    0.331034
H     2.681102    1.403268    1.424236
H     3.194534    -0.527013    0.522402
H     2.980823    1.259076    -0.727741
P     0.097594    -2.402733    0.396843
H     1.387280    -2.897741    0.674698
H     -0.654524    -2.924402    1.467314
H     -0.316179    -3.234743    -0.661529
P     -2.521698    -0.345480    -0.356024
H     -3.004451    -1.663234    -0.472009
H     -3.355265    0.190566    0.645925
H     -3.027143    0.258048    -1.525132
S     -0.406004    0.368714    2.383021
H     -0.638553    -0.755155    3.100021
H     0.672091    0.777234    3.090937
S     0.382044    -0.340946    -2.327972
H     0.433855    -1.637393    -2.711077
H     1.621961    -0.008905    -2.756454
