33

Mn     -0.000557    0.001516    -0.243826
C     0.000811    0.001331    2.449913
O     0.000274    0.001455    3.577916
C     -0.001346    2.060159    -0.066871
N     0.000199    3.212960    0.021204
C     0.004380    4.645269    0.134576
H     0.840338    5.037250    -0.451950
H     0.120679    4.908617    1.190040
H     -0.944691    5.027700    -0.252090
C     2.058418    0.002667    -0.067810
N     3.211138    0.001596    0.021423
C     4.643360    -0.001803    0.135618
H     5.036001    -0.837472    -0.450836
H     4.906517    -0.118174    1.191121
H     5.025306    0.947607    -0.250644
C     0.001009    -2.057173    -0.067542
N     0.000301    -3.209973    0.020673
C     -0.002852    -4.642277    0.133889
H     -0.839253    -5.034871    -0.451643
H     -0.117932    -4.905364    1.189504
H     0.946138    -5.024197    -0.253548
C     -2.059383    -0.000891    -0.066948
N     -3.212129    -0.001474    0.021830
C     -4.644737    -0.001721    0.131481
H     -5.053182    -0.622680    -0.671010
H     -5.000156    1.028197    0.035312
H     -4.918788    -0.410205    1.108678
C     -0.001814    0.001524    -2.482110
N     -0.001534    0.000694    -3.641642
C     0.000421    -0.001926    -5.076791
H     -0.614739    -0.835246    -5.427034
H     1.029878    -0.119895    -5.425756
H     -0.412075    0.946797    -5.430775
