22

Mn     -0.044490    -0.023634    -0.004865
N     -0.381278    2.191897    0.264364
H     -0.475150    2.319259    1.276799
H     -1.228614    2.591814    -0.148068
H     0.376559    2.819065    -0.017955
N     2.141128    0.188889    0.449511
H     2.858357    -0.206531    -0.163036
H     2.242046    -0.274675    1.357937
H     2.426151    1.157707    0.613674
N     0.232016    -2.234349    -0.392709
H     -0.333562    -2.720975    -1.093544
H     0.034281    -2.690574    0.502799
H     1.202449    -2.482943    -0.601444
N     -2.269880    -0.279165    -0.368868
H     -2.549988    -0.051062    -1.327407
H     -2.876802    0.288575    0.229976
H     -2.578404    -1.245029    -0.225182
O     -0.216821    -0.297356    1.730401
H     -1.114842    -0.426817    2.088801
S     0.264985    0.402431    -2.541302
H     1.096615    1.464086    -2.616518
H     1.195232    -0.490609    -2.943302
