27

Mn     0.002154    0.002849    -0.001097
C     -0.384075    2.316691    -0.332620
N     -0.574480    3.453315    -0.494699
C     -0.808252    4.845758    -0.691598
H     -0.042301    5.249129    -1.358576
H     -0.766076    5.359384    0.272042
H     -1.794031    4.985738    -1.142060
C     2.064895    0.304226    -0.350434
N     3.197242    0.468757    -0.536831
C     4.590718    0.669796    -0.760610
H     4.962645    -0.114864    -1.423882
H     5.116017    0.631471    0.196709
H     4.739067    1.646796    -1.226983
C     0.386788    -2.312811    0.329044
N     0.572310    -3.450172    0.491726
C     0.798049    -4.843461    0.692070
H     0.010426    -5.412184    0.191584
H     0.788661    -5.061172    1.762915
H     1.768537    -5.115727    0.269761
C     -2.060060    -0.300393    0.349322
N     -3.191274    -0.468095    0.539766
C     -4.582516    -0.676871    0.770502
H     -5.033959    0.262769    1.098104
H     -4.705058    -1.434368    1.548388
H     -5.052989    -1.012838    -0.156663
Cl     0.338936    0.362673    2.200393
Cl     -0.334673    -0.357982    -2.202497
