33

Mn     0.004354    -0.001056    0.024787
C     0.301266    2.013178    0.360570
N     0.467489    3.142880    0.547379
C     0.673913    4.546425    0.779412
H     1.594706    4.851007    0.273692
H     0.757461    4.712484    1.857315
H     -0.181417    5.095019    0.374644
C     2.016562    -0.338298    0.323889
N     3.145711    -0.525969    0.491855
C     4.548826    -0.758496    0.700221
H     4.914786    -1.413463    -0.095697
H     4.681932    -1.233082    1.676665
H     5.068496    0.203482    0.670175
C     -0.283006    -2.015757    -0.312033
N     -0.442280    -3.146030    -0.500853
C     -0.640738    -4.550154    -0.736274
H     -1.403512    -4.668178    -1.511246
H     -0.969644    -5.016474    0.196864
H     0.307210    -4.984741    -1.066263
C     -2.010621    0.331806    -0.272804
N     -3.140990    0.514533    -0.439484
C     -4.545515    0.739913    -0.646263
H     -4.800181    1.730212    -0.257825
H     -5.104134    -0.033494    -0.111245
H     -4.752326    0.686835    -1.719045
P     -0.491516    -0.393329    2.813677
H     0.613887    -0.471948    3.686339
H     -1.260633    0.583579    3.479972
H     -1.190532    -1.556900    3.197338
P     0.454027    0.415424    -2.767735
H     1.788055    0.488382    -3.220056
H     -0.057466    -0.544948    -3.665372
H     -0.065958    1.592301    -3.346045
