17

Mn     -0.000019    0.005258    0.000023
C     0.048369    0.003583    2.438919
O     0.054010    -0.000351    3.562137
C     -0.048304    0.003593    -2.438913
O     -0.053933    -0.000337    -3.562151
O     -0.000009    1.917587    -0.000000
H     0.803906    2.492244    0.003223
H     -0.803908    2.492267    -0.003221
O     2.024510    -0.003649    -0.054885
H     2.592994    0.003022    -0.861788
H     2.639352    -0.020038    0.717505
O     -0.000009    -1.907760    0.000007
H     0.803701    -2.482364    -0.009040
H     -0.803704    -2.482385    0.009047
O     -2.024542    -0.003651    0.054871
H     -2.593018    0.003021    0.861778
H     -2.639395    -0.020038    -0.717513
