37

Mn     -0.000322    -0.000580    0.016591
C     0.470112    3.199331    0.529742
N     0.305150    2.064694    0.346699
C     0.675954    4.618465    0.758284
H     0.647452    5.156675    -0.196512
H     1.650273    4.782179    1.233309
H     -0.112979    5.008373    1.412174
C     3.197142    -0.523598    0.497242
N     2.063277    -0.339480    0.328161
C     4.615303    -0.753592    0.708215
H     5.156277    0.199246    0.673884
H     5.005088    -1.416688    -0.073056
H     4.774796    -1.221683    1.686777
C     -0.473928    -3.200160    -0.494370
N     -0.306692    -2.065585    -0.312968
C     -0.682645    -4.619155    -0.721010
H     0.278384    -5.145850    -0.693537
H     -1.149877    -4.774831    -1.700555
H     -1.338513    -5.027725    0.056821
C     -3.196932    0.522694    -0.469239
N     -2.063756    0.338255    -0.295912
C     -4.614074    0.753446    -0.686141
H     -5.202272    0.093168    -0.037987
H     -4.868546    0.546569    -1.732339
H     -4.861233    1.796370    -0.456042
C     -0.335708    -0.280101    2.014503
N     -0.522431    -0.436913    3.143331
C     -0.753776    -0.630713    4.547405
H     -0.312506    -1.585899    4.844654
H     -1.832615    -0.638516    4.724884
H     -0.284463    0.191703    5.094046
C     0.336403    0.279886    -1.980999
N     0.524821    0.438060    -3.109356
C     0.758375    0.634392    -4.512667
H     0.111377    -0.046917    -5.071781
H     1.809489    0.420317    -4.724407
H     0.524311    1.672687    -4.762915
