33

Mn     -0.006024    -0.005977    0.394082
C     0.472135    3.074598    0.064875
N     0.296603    1.932304    0.183705
C     0.688521    4.498209    -0.086188
H     0.479297    4.796636    -1.121648
H     1.730070    4.744010    0.156873
H     0.021453    5.047945    0.590172
C     3.074071    -0.492413    0.073099
N     1.932158    -0.311626    0.187727
C     4.497014    -0.717579    -0.071060
H     5.024861    0.244320    -0.093159
H     4.694555    -1.258600    -1.005458
H     4.865069    -1.311227    0.775607
C     -0.493906    -3.089645    0.121103
N     -0.312411    -1.946251    0.218790
C     -0.720011    -4.514303    -0.002370
H     0.241267    -5.043737    -0.008366
H     -1.253854    -4.725691    -0.937897
H     -1.321137    -4.868153    0.845094
C     -3.090089    0.474273    0.110666
N     -1.946382    0.297759    0.213641
C     -4.515351    0.691886    -0.020992
H     -5.056993    0.015621    0.652783
H     -4.825648    0.495992    -1.055609
H     -4.758746    1.730071    0.238427
C     0.043292    0.038358    3.694332
N     0.024423    0.021884    2.531811
C     0.065121    0.057076    5.145471
H     -0.946760    -0.107007    5.534880
H     0.432946    1.027077    5.500538
H     0.725281    -0.735159    5.518232
C     -0.027477    -0.027163    -2.280988
O     -0.032765    -0.033212    -3.409286
