19

Mn     -0.000492    0.000028    -0.001931
N     -0.936085    2.062949    0.447693
H     -1.940225    1.979360    0.613596
H     -0.551978    2.500439    1.287192
H     -0.839496    2.719015    -0.329446
N     1.949572    0.915456    -0.193140
H     1.859701    1.930579    -0.132508
H     2.581958    0.624008    0.554357
H     2.382690    0.718629    -1.097292
N     0.937184    -2.063207    -0.447464
H     1.944703    -1.981719    -0.592726
H     0.823928    -2.723268    0.323963
H     0.568090    -2.494764    -1.296720
N     -1.950692    -0.915287    0.185935
H     -1.863468    -1.929508    0.108579
H     -2.379219    -0.731314    1.094989
H     -2.585928    -0.611260    -0.554102
Cl     0.358197    -0.332382    2.199864
Cl     -0.358442    0.332247    -2.203795
