15

Mn     -0.176121    0.242462    0.051132
S     0.218365    2.846325    0.416436
H     1.269377    2.818850    1.262615
H     0.961038    3.142786    -0.670859
S     2.486808    -0.050903    -0.399233
H     2.837568    -1.073509    0.407260
H     2.556429    -0.767055    -1.540109
S     -0.735720    -2.382935    -0.284999
H     0.153480    -3.007001    0.514534
H     -0.106076    -2.697548    -1.435523
S     -2.763291    0.693354    0.514580
H     -3.027042    -0.265834    1.426724
H     -3.314754    0.018862    -0.516149
F     0.097804    -0.032327    1.737908
F     -0.441156    0.502222    -1.639058
