12

Mn     -0.051038    -0.051153    0.008733
C     -0.062329    2.245687    -0.324054
O     -0.078942    3.345363    -0.555911
C     2.247512    -0.071920    -0.321176
O     3.347091    -0.094360    -0.553039
C     -0.000075    -2.333221    0.409918
O     0.013401    -3.450854    0.527381
C     -2.333617    0.008981    0.408751
O     -3.451181    0.027757    0.526157
C     0.289441    0.291095    2.130353
O     0.467163    0.469952    3.224633
Cl     -0.387420    -0.387329    -2.073657
