18

Mn     -0.023716    -0.012031    -0.011884
C     -0.449208    -0.233838    -2.028273
O     -0.659657    -0.353895    -3.124263
O     0.267763    1.872139    -0.289766
H     1.122864    2.341884    -0.145123
H     -0.346394    2.496202    -0.744591
O     1.889017    -0.311071    -0.222866
H     2.388764    -0.467056    -1.056519
H     2.515903    -0.351949    0.534602
O     -0.296324    -1.893060    0.275281
H     0.380452    -2.528775    0.607829
H     -1.083972    -2.412379    -0.014475
O     -1.928722    0.295197    0.280440
H     -2.285423    0.434229    1.186816
H     -2.683948    0.349993    -0.348141
O     0.438368    0.183631    1.946458
H     0.562206    1.049363    2.391929
H     0.192025    -0.458584    2.646872
