29

Mn     0.000006    0.000170    -0.001552
C     -0.000064    -0.000045    1.962567
O     -0.000022    -0.000120    3.089804
C     0.000070    0.000330    -1.965536
O     0.000016    0.000281    -3.092784
C     -0.000436    1.995168    -0.001077
N     0.000188    3.154216    0.000855
C     0.002440    4.587680    0.006896
H     0.835633    4.935522    -0.614834
H     0.106950    4.937914    1.037432
H     -0.943008    4.935545    -0.427439
C     1.995008    0.001223    -0.001389
N     3.154124    0.000444    0.000732
C     4.587559    -0.002109    0.006964
H     4.935219    -0.835394    -0.614798
H     4.937684    -0.106907    1.037506
H     4.935676    0.943285    -0.427284
C     0.000405    -1.994887    -0.000644
N     -0.000191    -3.153975    0.001156
C     -0.002388    -4.587430    0.006997
H     -0.835676    -4.935114    -0.614790
H     -0.107005    -4.937838    1.037464
H     0.943062    -4.935210    -0.427436
C     -1.995013    0.000437    0.000011
N     -3.154112    -0.001728    0.001045
C     -4.587555    -0.006908    0.002347
H     -4.936552    -0.604487    -0.846138
H     -4.933534    1.028851    -0.109328
H     -4.938485    -0.418916    0.953251
