13

Mn     0.000010    0.000014    -0.000001
C     -0.000166    2.016185    0.000002
N     -0.000345    3.184936    0.000004
C     2.016181    -0.000175    -0.000003
N     3.184928    -0.000372    -0.000005
C     0.000140    -2.016159    -0.000001
N     0.000283    -3.184906    -0.000001
C     -2.016163    0.000145    0.000001
N     -3.184914    0.000278    0.000003
C     0.000003    0.000012    2.643615
O     -0.000014    0.000005    3.778816
C     0.000017    0.000016    -2.643614
O     0.000038    0.000021    -3.778816
