73
03/24/2023 16:57, XYZ structure generated by mol3D Class, molSimplify
Mn     -0.006647    -0.018055    0.004261
O     -0.274536    1.877918    0.227518
C     -0.939525    2.590627    1.069389
N     -2.172038    3.075993    0.849362
C     -2.531470    4.088929    1.861319
C     -1.486989    3.806350    2.974629
N     -0.473962    3.022554    2.245569
H     -3.557552    3.954070    2.206492
H     -2.424723    5.095963    1.444725
H     -1.911371    3.213830    3.792167
H     -1.056879    4.721587    3.384929
H     -2.597490    3.030604    -0.066015
H     0.391906    2.662713    2.634721
O     1.913538    0.354988    -0.152727
C     2.786709    -0.087516    -0.979603
N     4.048783    0.374829    -1.033608
C     4.785168    -0.225125    -2.161221
C     3.907460    -1.460509    -2.475221
N     2.611955    -1.068577    -1.885306
H     5.801963    -0.493387    -1.870869
H     4.825840    0.473526    -3.003867
H     4.291864    -2.363746    -1.987998
H     3.815724    -1.647190    -3.546348
H     4.302526    1.265349    -0.626999
H     1.834771    -1.708384    -1.761114
O     0.274514    -1.898227    -0.398533
C     -0.151757    -2.956454    0.197641
N     -0.688550    -3.035784    1.420580
C     -1.145796    -4.402054    1.726606
C     -0.469018    -5.229059    0.600226
N     -0.102319    -4.176494    -0.363408
H     -2.238401    -4.458949    1.678171
H     -0.821412    -4.714206    2.721087
H     -1.147826    -5.954569    0.149113
H     0.425793    -5.752050    0.953662
H     -0.857436    -2.204886    1.972653
H     0.392228    -4.355082    -1.225898
O     -1.885823    -0.295525    0.424799
C     -2.849145    -0.742316    -0.285526
N     -4.131872    -0.706855    0.117275
C     -5.003629    -1.441718    -0.815465
C     -4.105569    -1.521798    -2.075498
N     -2.760717    -1.314628    -1.503367
H     -5.934111    -0.901262    -0.995986
H     -5.240618    -2.434601    -0.417759
H     -4.343938    -0.728931    -2.793611
H     -4.177586    -2.487811    -2.577571
H     -4.374683    -0.525003    1.082112
H     -1.937652    -1.119503    -2.062490
O     0.195722    -0.371154    1.967779
C     1.038209    0.017141    2.835180
N     1.952020    1.024445    2.681779
C     2.913198    0.983293    3.810997
C     2.092758    0.258314    4.900454
N     1.125783    -0.486183    4.075601
H     3.215087    1.987787    4.110121
H     3.804075    0.409588    3.532567
H     1.569917    0.959196    5.560702
H     2.698512    -0.417080    5.506429
H     2.282472    1.167584    1.730863
H     0.405252    -1.079662    4.464753
O     -0.283919    0.151408    -1.938240
C     0.043223    1.080704    -2.754552
N     -0.176799    0.998021    -4.080508
C     0.435795    2.132964    -4.794077
C     0.649467    3.140935    -3.639157
N     0.629153    2.257523    -2.456437
H     -0.228556    2.516294    -5.569912
H     1.382482    1.828681    -5.253552
H     -0.164586    3.872536    -3.585306
H     1.597959    3.674394    -3.718548
H     -0.361895    0.109183    -4.525976
H     0.574980    2.604821    -1.505400
