24

Mn     -0.009834    -0.003092    0.125636
N     -0.298931    2.054339    -0.047493
H     -1.113153    2.430283    0.456404
H     0.488319    2.635454    0.268830
H     -0.442325    2.276130    -1.042783
N     2.052715    0.216340    -0.313098
H     2.297660    1.128147    -0.720114
H     2.635661    0.137617    0.530904
H     2.430348    -0.474142    -0.975143
N     0.207579    -2.070148    -0.009970
H     1.150748    -2.413311    0.212488
H     -0.420155    -2.618114    0.593366
H     0.020635    -2.368638    -0.977863
N     -2.097696    -0.289710    0.316974
H     -2.448417    -1.132640    -0.156664
H     -2.397308    -0.386174    1.296494
H     -2.666576    0.477112    -0.064781
N     0.406869    0.089624    2.400496
H     -0.439046    0.104778    2.982996
H     0.948626    -0.695309    2.783427
H     0.921566    0.923170    2.710803
O     -0.353345    -0.002014    -2.233119
H     -1.197097    -0.053683    -2.724621
H     0.322162    0.035022    -2.938754
