55
03/24/2023 16:57, XYZ structure generated by mol3D Class, molSimplify
Mn     -0.000005    -0.000709    -0.000576
N     0.066861    2.004156    0.320196
C     -0.532800    4.143595    0.623649
N     0.842356    4.026008    0.644771
C     1.177082    2.738352    0.464921
C     -1.012216    2.880560    0.420550
H     2.189462    2.369931    0.431347
H     1.499703    4.789513    0.774287
H     -2.030195    2.537932    0.341488
H     -1.036230    5.090926    0.750392
N     2.317993    -0.118417    0.332731
C     4.548180    -0.053047    -0.004883
N     4.279144    -0.398197    1.301268
C     2.940703    -0.426805    1.470671
C     3.325802    0.117621    -0.596771
H     2.467569    -0.673537    2.409246
H     4.971951    -0.599587    2.014839
H     3.110111    0.394452    -1.617215
H     5.555143    0.035954    -0.385040
N     -0.066846    -2.005560    -0.321276
C     0.532797    -4.145023    -0.624637
N     -0.842361    -4.027418    -0.645663
C     -1.177084    -2.739748    -0.465928
C     1.012220    -2.881983    -0.421601
H     -2.189462    -2.371313    -0.432376
H     -1.499719    -4.790928    -0.775096
H     2.030203    -2.539356    -0.342594
H     1.036213    -5.092365    -0.751349
N     -2.317987    0.117076    -0.334240
C     -4.548226    0.051981    0.003365
N     -4.279142    0.397234    -1.302748
C     -2.940689    0.425687    -1.472116
C     -3.325853    -0.118926    0.595205
H     -2.467522    0.672452    -2.410664
H     -4.971916    0.598770    -2.016309
H     -3.110206    -0.395910    1.615617
H     -5.555198    -0.036928    0.383518
N     -0.305576    -0.330178    2.031297
C     -0.466036    -1.336384    4.036061
N     -0.740103    0.009306    4.157520
C     -0.633676    0.587076    2.950195
C     -0.197520    -1.542058    2.713198
H     -0.800975    1.637045    2.773342
H     -0.982765    0.489512    5.018794
H     0.065977    -2.461635    2.218810
H     -0.488653    -2.012183    4.878305
N     0.305563    0.328787    -2.032457
C     0.466274    1.335015    -4.037195
N     0.739961    -0.010748    -4.158702
C     0.633394    -0.588527    -2.951392
C     0.197845    1.540718    -2.714318
H     0.800417    -1.638545    -2.774575
H     0.982471    -0.490994    -5.019997
H     -0.065392    2.460351    -2.219896
H     0.489053    2.010835    -4.879417
