24

Mn     -0.000776    0.002093    0.013834
P     -0.414662    2.561094    0.445389
H     -1.322181    2.839660    1.485909
H     0.720711    3.307385    0.815462
H     -0.939000    3.280487    -0.645444
P     2.561686    0.395309    -0.423802
H     3.087117    1.625353    0.015795
H     3.392233    -0.548275    0.210789
H     2.955329    0.326440    -1.774631
P     0.358943    -2.556205    -0.509093
H     1.611254    -2.896150    -1.055481
H     0.240989    -3.414119    0.601123
H     -0.547949    -3.092263    -1.443538
P     -2.574824    -0.403402    0.353907
H     -3.079592    -1.609137    -0.170184
H     -2.999447    -0.429958    1.696189
H     -3.407957    0.567000    -0.235756
P     0.516607    -0.363251    2.769012
H     1.731476    0.136654    3.284425
H     -0.386518    0.216713    3.685110
H     0.563407    -1.679370    3.275446
S     -0.305503    0.202967    -2.803534
H     -1.585006    0.064208    -3.215783
H     -0.182022    1.472466    -3.250209
