35

Mn     -0.069921    0.059738    0.015007
O     -0.436298    2.197780    0.009796
H     0.299909    2.836847    0.072510
H     -1.162451    2.662587    -0.447825
O     1.991148    0.474532    -0.046349
H     2.515632    0.804710    -0.802307
H     2.596757    0.421870    0.718484
O     -0.098743    -2.121970    -0.025192
H     0.139135    -2.695600    -0.779668
H     -0.567217    -2.694875    0.612842
O     -2.206068    -0.061375    0.098457
H     -2.761955    0.260018    0.835398
H     -2.694620    -0.808973    -0.297710
C     0.396443    -0.102879    4.790688
C     -0.302491    0.946967    4.185889
C     -0.416079    0.978375    2.801857
N     0.134756    0.010352    2.022403
C     0.824906    -1.009612    2.605322
C     0.971242    -1.090754    3.983063
H     0.498252    -0.148331    5.871880
H     -0.754705    1.741712    4.771583
H     -0.927108    1.786487    2.291807
H     1.261218    -1.756254    1.950500
H     1.527284    -1.920534    4.409077
C     -0.043588    -0.092535    -4.791722
C     0.978306    -0.694134    -4.047931
C     0.923003    -0.645058    -2.662184
N     -0.096979    -0.024694    -2.007781
C     -1.096048    0.548769    -2.726887
C     -1.096674    0.531590    -4.116253
H     -0.019303    -0.113076    -5.878165
H     1.812014    -1.195588    -4.530189
H     1.699516    -1.104063    -2.057723
H     -1.904910    1.013756    -2.175854
H     -1.913970    1.004615    -4.652822
