62

Mn     0.000337    0.042275    0.125782
C     0.260069    -0.073394    -2.387753
N     0.395984    -0.265228    -3.528005
C     0.553832    -0.497944    -4.936535
H     0.038764    -1.423885    -5.202885
H     1.618125    -0.584133    -5.168899
H     0.119767    0.340522    -5.486683
C     -0.652762    4.919163    -0.033453
C     -0.665429    4.240053    1.185779
C     -0.444835    2.868379    1.201080
N     -0.204961    2.155348    0.074826
C     -0.204548    2.817776    -1.108483
C     -0.418633    4.187377    -1.198729
H     -0.826756    5.990440    -0.075860
H     -0.845370    4.759898    2.120638
H     -0.462242    2.318552    2.131080
H     -0.033331    2.229541    -1.999828
H     -0.406812    4.664080    -2.173608
C     4.868743    0.318057    0.357160
C     4.170176    -0.622020    1.118883
C     2.786718    -0.678500    1.020328
N     2.084208    0.145914    0.202334
C     2.764928    1.052494    -0.539219
C     4.148259    1.165722    -0.487542
H     5.950986    0.386939    0.419234
H     4.685072    -1.305106    1.786405
H     2.215304    -1.393344    1.597913
H     2.182209    1.699312    -1.181704
H     4.645897    1.912461    -1.097788
C     -0.068148    -4.846221    -0.546065
C     -1.161103    -4.189744    0.021715
C     -1.108910    -2.812089    0.189825
N     -0.030763    -2.069677    -0.164099
C     1.018847    -2.711480    -0.736020
C     1.035514    -4.085542    -0.937419
H     -0.079617    -5.922835    -0.687329
H     -2.049920    -4.731267    0.328858
H     -1.951746    -2.277518    0.605521
H     1.854625    -2.098542    -1.045872
H     1.904370    -4.546439    -1.395697
C     -4.864247    0.382643    -0.137234
C     -4.203124    0.600235    1.073501
C     -2.822315    0.463141    1.123880
N     -2.089381    0.111194    0.039616
C     -2.732181    -0.101229    -1.134668
C     -4.110026    0.024069    -1.256606
H     -5.942515    0.492538    -0.207380
H     -4.743214    0.878886    1.972391
H     -2.276638    0.627111    2.042483
H     -2.125228    -0.381370    -1.985358
H     -4.578741    -0.157264    -2.218289
C     0.370783    -0.506215    5.286595
C     1.113880    0.460578    4.605437
C     0.944907    0.593246    3.232224
N     0.079690    -0.160396    2.508761
C     -0.621592    -1.101071    3.183296
C     -0.509479    -1.304696    4.554781
H     0.478431    -0.636769    6.359206
H     1.818067    1.101524    5.126263
H     1.524756    1.325543    2.679885
H     -1.298333    -1.714905    2.601082
H     -1.102909    -2.075268    5.035686
