32

Mn     -0.079630    -0.069758    0.291281
C     0.379581    3.100766    -0.368496
N     0.231693    1.999114    -0.045239
C     0.564316    4.482161    -0.783588
H     0.308972    4.583685    -1.843962
H     1.608100    4.778564    -0.635908
H     -0.082483    5.139449    -0.193114
C     3.147289    -0.631507    -0.331054
N     2.057061    -0.418296    -0.004057
C     4.513731    -0.902290    -0.751485
H     5.020757    0.036926    -0.995980
H     4.504487    -1.543788    -1.639122
H     5.060996    -1.406567    0.051532
C     -0.576322    -3.278349    0.672361
N     -0.386636    -2.137180    0.630963
C     -0.816130    -4.712043    0.712936
H     0.138898    -5.247091    0.742712
H     -1.368968    -5.016406    -0.182379
H     -1.400124    -4.969599    1.602575
C     -3.357441    0.446186    0.626692
N     -2.210400    0.287274    0.623756
C     -4.799119    0.643177    0.620604
H     -5.265816    0.016463    1.387547
H     -5.202543    0.370822    -0.360518
H     -5.033378    1.693027    0.825030
C     0.428219    0.387053    3.410978
N     0.245364    0.221695    2.279843
C     0.657058    0.593832    4.831415
H     -0.298220    0.572801    5.366871
H     1.138431    1.564555    4.991682
H     1.305784    -0.198135    5.220914
Cl     -0.433084    -0.386416    -1.849232
