22

Mn     -0.047312    0.034084    0.016721
N     -0.286781    2.246016    0.344545
H     -1.224788    2.512559    0.655696
H     0.359261    2.757620    0.951510
H     -0.194979    2.665825    -0.586106
N     2.163493    0.315150    -0.329063
H     2.506030    1.249973    -0.090691
H     2.839955    -0.336439    0.078160
H     2.284390    0.246305    -1.344859
N     0.183507    -2.168930    -0.355764
H     1.150113    -2.503980    -0.316374
H     -0.361746    -2.845066    0.186259
H     -0.102077    -2.302642    -1.331463
N     -2.266754    -0.247489    0.317784
H     -2.541607    -1.212564    0.518406
H     -2.772297    0.325178    0.999019
H     -2.688254    -0.034258    -0.592163
N     0.281442    -0.209406    2.076612
H     -0.479817    0.167395    2.648443
H     0.374434    -1.193140    2.344799
H     1.135216    0.252057    2.403750
F     -0.312742    0.285798    -1.647644
