31

Mn     -0.002903    -0.027667    -0.000750
O     -0.442918    1.824657    0.481175
P     -0.057673    3.138889    -0.257481
H     -0.855531    3.419342    -1.378395
H     -0.195786    4.239203    0.599625
H     1.266153    3.161549    -0.723307
O     1.852326    0.413760    -0.476314
P     3.172153    -0.190670    0.081472
H     3.191013    -1.593243    0.108472
H     4.258906    0.204320    -0.710771
H     3.478512    0.215632    1.389508
O     0.430025    -1.880004    -0.450478
P     -0.142523    -3.205489    0.124520
H     -1.448731    -3.495726    -0.299229
H     0.647901    -4.290535    -0.278688
H     -0.184405    -3.249714    1.526675
O     -1.850642    -0.527755    0.410427
P     -3.172321    0.187104    0.007090
H     -4.261652    -0.682766    0.151761
H     -3.470625    1.314978    0.788705
H     -3.192716    0.633390    -1.323411
O     0.498471    -0.431978    1.848248
P     -0.104893    0.053114    3.195847
H     0.125790    1.409906    3.472897
H     -1.495265    -0.116862    3.289965
H     0.450673    -0.663418    4.264788
O     -0.459379    0.420258    -1.851897
P     0.304693    0.027779    -3.150744
H     0.796579    -1.286122    -3.147128
H     -0.545614    0.132433    -4.259979
H     1.410385    0.845626    -3.432580
