35

Mn     0.023679    0.035872    0.009414
O     0.372365    1.990036    -0.001423
H     1.029042    2.436801    -0.571065
H     -0.335899    2.633722    0.194821
O     1.994121    -0.354509    0.096535
H     2.649882    -0.003877    -0.537949
H     2.456624    -0.450777    0.953151
O     -0.332133    -1.922292    -0.005030
H     0.046705    -2.558336    -0.641470
H     -1.019169    -2.383030    0.514626
O     -1.961442    0.486880    -0.025526
H     -2.551160    0.234501    0.712378
H     -2.488074    0.371509    -0.841823
C     -0.113288    0.005650    4.811203
C     -0.764251    1.016133    4.091737
C     -0.757918    0.967876    2.706885
N     -0.138681    -0.026470    2.006987
C     0.481287    -1.015410    2.718190
C     0.516856    -1.028218    4.103010
H     -0.101654    0.019574    5.897760
H     -1.264679    1.836112    4.597442
H     -1.252007    1.744713    2.134002
H     0.942659    -1.815085    2.148178
H     1.024739    -1.836925    4.619989
C     0.110676    -0.098759    -4.796812
C     0.877283    -1.005844    -4.051441
C     0.877444    -0.909807    -2.668609
N     0.154788    0.032105    -1.996018
C     -0.570112    0.923924    -2.732850
C     -0.618857    0.886893    -4.117137
H     0.087547    -0.155047    -5.881967
H     1.465437    -1.779178    -4.536410
H     1.480933    -1.587242    -2.071780
H     -1.106939    1.690679    -2.184532
H     -1.215490    1.618130    -4.654466
