15

Mn     -0.000040    -0.000146    -0.013876
O     -0.201011    2.103207    0.303348
H     -0.481073    2.601911    -0.484139
H     -0.801654    2.348649    1.028473
O     2.097264    0.176151    0.333529
H     2.554912    0.801540    -0.254684
H     2.322492    0.423620    1.247767
O     0.200907    -2.103501    -0.331601
H     0.792506    -2.348578    -1.064258
H     0.490998    -2.602402    0.452112
O     -2.097653    -0.176149    -0.360135
H     -2.553765    -0.803757    0.226924
H     -2.324266    -0.421030    -1.274717
F     -0.263450    -0.276076    1.676024
F     0.263473    0.275722    -1.703943
