21

Mn     0.000001    0.000195    -0.000001
C     -0.000001    2.307669    0.000004
O     0.000000    3.430700    -0.000003
C     2.307742    0.000097    0.000171
O     3.430795    0.000103    0.000265
C     -0.000000    -2.307618    -0.000005
O     0.000000    -3.430709    0.000004
C     -2.307743    0.000097    -0.000171
O     -3.430794    0.000104    -0.000265
C     0.000286    0.000440    2.030567
N     0.000374    0.000474    3.187609
C     -0.000027    -0.000149    4.623210
H     0.611498    -0.843784    4.966285
H     -1.036398    -0.108388    4.966039
H     0.424406    0.951090    4.967242
C     -0.000286    0.000494    -2.030610
N     -0.000375    0.000368    -3.187569
C     0.000027    -0.000142    -4.623213
H     -0.611500    -0.843772    -4.966260
H     1.036400    -0.108374    -4.966034
H     -0.424405    0.951104    -4.967266
