37

Mn     0.012303    0.011603    -0.013859
C     0.456768    3.063505    0.492842
N     0.282297    1.930784    0.309095
C     0.671480    4.479214    0.725209
H     0.600060    5.029931    -0.220092
H     1.661582    4.640204    1.167975
H     -0.092003    4.858113    1.416887
C     3.062751    -0.487230    0.450172
N     1.927929    -0.311575    0.281908
C     4.480566    -0.708262    0.663548
H     4.978161    0.245573    0.877422
H     4.929893    -1.160758    -0.227978
H     4.624336    -1.380178    1.519308
C     -0.382099    -3.044412    -0.531555
N     -0.222579    -1.907950    -0.359693
C     -0.582141    -4.465656    -0.744116
H     0.377442    -4.991260    -0.665781
H     -1.012461    -4.641076    -1.736822
H     -1.264336    -4.861362    0.018874
C     -3.028618    0.553414    -0.483453
N     -1.894076    0.365312    -0.328959
C     -4.447978    0.784942    -0.676346
H     -5.023125    0.035046    -0.118416
H     -4.699181    0.707452    -1.740651
H     -4.717543    1.782627    -0.309788
C     -0.478373    -0.424464    3.079790
N     -0.290036    -0.257017    1.947565
C     -0.712703    -0.632275    4.497633
H     -1.778524    -0.820933    4.674712
H     -0.414816    0.262167    5.058129
H     -0.131240    -1.490468    4.853236
C     0.247951    0.226801    -1.982772
N     0.395651    0.361665    -3.122291
C     0.581378    0.532085    -4.536300
H     -0.117061    -0.125308    -5.061682
H     1.610631    0.266187    -4.790716
H     0.383012    1.575388    -4.794492
