17

Mn     0.036830    -0.041263    0.030805
O     0.330435    2.042632    -0.096659
H     1.214263    2.395547    -0.317874
H     -0.308585    2.554983    -0.629233
O     2.094562    -0.420578    0.399077
H     2.725063    -0.577391    -0.329079
H     2.608449    -0.292712    1.217946
O     -0.327351    -2.060359    0.509092
H     0.451264    -2.650890    0.535677
H     -1.023050    -2.551463    0.029586
O     -2.020541    0.316433    -0.339601
H     -2.730109    0.429444    0.319025
H     -2.435027    0.242211    -1.219748
O     -0.253249    0.276659    1.984366
H     -0.252991    1.150071    2.420961
H     -0.474141    -0.422267    2.629270
Cl     0.363784    -0.393454    -2.098425
