13

Mn     -0.013572    -0.004801    -0.012154
Cl     -0.361058    2.311505    -0.389612
Cl     2.306428    0.382569    0.339119
Cl     0.335936    -2.330086    0.367514
Cl     -2.326680    -0.390477    -0.362518
N     -0.360125    0.337621    2.209572
H     -1.304532    0.689018    2.343222
H     -0.252582    -0.558951    2.677333
H     0.323861    1.003839    2.557113
N     0.373006    -0.315094    -2.228183
H     -0.454311    -0.045349    -2.753787
H     1.179110    0.228803    -2.524340
H     0.554521    -1.308600    -2.351272
