23

Mn     0.010564    0.001553    0.108556
N     -0.205863    2.078975    0.272725
H     -1.185333    2.373285    0.382370
H     0.277282    2.469832    1.093638
H     0.143764    2.609102    -0.538550
N     2.104365    0.219089    0.217472
H     2.422464    1.189622    0.094947
H     2.507784    -0.080800    1.116131
H     2.610026    -0.312415    -0.504731
N     0.281142    -2.063160    -0.139713
H     1.121054    -2.432941    0.326571
H     -0.493524    -2.632790    0.227717
H     0.377061    -2.333005    -1.129117
N     -2.023339    -0.172883    -0.411554
H     -2.254275    -1.062935    -0.873227
H     -2.659268    -0.122020    0.397019
H     -2.349877    0.546359    -1.071896
N     -0.355099    -0.241769    2.374342
H     -1.147790    0.290474    2.755193
H     -0.546412    -1.208647    2.664771
H     0.433459    0.038067    2.971336
C     0.389340    0.346346    -2.574413
O     0.541887    0.501630    -3.678741
