15

Mn     -0.073205    -0.272170    0.121454
Cl     0.250363    1.870695    0.466496
Cl     1.876997    -1.255590    0.355610
S     -1.023930    -2.615736    -0.168549
H     -0.234806    -3.278729    0.701110
H     -2.126225    -2.703216    0.609099
S     -2.490999    0.359205    -0.384924
H     -2.854935    -0.295411    -1.510395
H     -2.288229    1.534163    -1.014872
S     -0.396703    -0.604190    2.548733
H     0.696223    0.074329    2.955596
H     -1.251695    0.383305    2.895392
S     0.392214    0.134961    -2.262401
H     1.613201    0.686120    -2.101267
H     0.881717    -1.047747    -2.695851
