13

Mn     0.008180    0.001852    0.023167
C     0.286006    1.925750    0.373430
S     0.522253    3.401150    0.607636
C     1.932472    -0.353035    -0.247470
S     3.408166    -0.589818    -0.479244
C     -0.265420    -1.920614    -0.335771
S     -0.501547    -3.395489    -0.573569
C     -1.914930    0.359338    0.293084
S     -3.390403    0.596623    0.526093
C     0.360681    -0.271483    1.946638
S     0.593328    -0.506433    3.422547
C     -0.338551    0.277411    -1.901656
S     -0.568340    0.512241    -3.377985
