27

Mn     0.001283    0.002588    -0.002356
C     0.390558    3.102352    0.500631
N     0.233471    1.973376    0.321844
C     0.584487    4.528824    0.723227
H     0.527228    5.063810    -0.229762
H     1.565564    4.706526    1.174203
H     -0.189992    4.909478    1.396203
C     3.084401    -0.558806    0.437747
N     1.958664    -0.368725    0.270881
C     4.504812    -0.804011    0.647918
H     4.993685    0.109446    1.000140
H     4.970569    -1.118209    -0.291280
H     4.639440    -1.590712    1.396673
C     -0.389860    -3.096561    -0.509685
N     -0.231148    -1.968337    -0.327594
C     -0.588899    -4.521379    -0.738256
H     0.372594    -5.042816    -0.705854
H     -1.047174    -4.680106    -1.719287
H     -1.244107    -4.933578    0.035365
C     -3.082272    0.557916    -0.448439
N     -1.956399    0.372844    -0.276911
C     -4.503035    0.792620    -0.667958
H     -5.089561    0.003740    -0.187072
H     -4.716606    0.795028    -1.741338
H     -4.792481    1.759003    -0.243851
F     -0.275161    -0.261831    1.702986
F     0.277482    0.266826    -1.707917
