17

Mn     0.000056    0.001407    0.000019
C     -0.079519    0.000403    2.094583
O     -0.101581    -0.002037    3.216759
C     0.079622    0.000440    -2.094549
O     0.101387    -0.002060    -3.216792
O     -0.000015    1.919961    -0.000011
H     0.583566    2.503285    -0.542613
H     -0.583556    2.503314    0.542611
O     1.960413    0.001897    -0.020578
H     2.573272    -0.001245    -0.792202
H     2.527706    -0.003989    0.786044
O     -0.000015    -1.916753    -0.000008
H     0.574895    -2.500630    -0.551091
H     -0.574888    -2.500661    0.551094
O     -1.960385    0.001899    0.020573
H     -2.573246    -0.001247    0.792190
H     -2.527712    -0.003982    -0.786030
