37

Mn     0.122122    0.106068    0.291148
N     0.371148    2.074141    0.583368
C     0.589784    3.209529    0.588029
C     0.864646    4.638530    0.585163
H     -0.022184    5.188188    0.253082
H     1.138527    4.970493    1.591991
H     1.692073    4.850957    -0.100263
N     2.080071    -0.246406    0.535703
C     3.229965    -0.366800    0.516780
C     4.676987    -0.517345    0.485160
H     5.092112    0.111362    -0.309948
H     5.106844    -0.212520    1.444965
H     4.940731    -1.561380    0.287204
N     -0.120128    -1.850345    -0.045596
C     -0.281740    -2.935632    -0.410635
C     -0.480067    -4.299222    -0.878186
H     0.401353    -4.629673    -1.437806
H     -0.639006    -4.969611    -0.027175
H     -1.355013    -4.340417    -1.535383
N     -1.823384    0.473522    0.003258
C     -2.911448    0.660317    -0.340774
C     -4.276680    0.898900    -0.784157
H     -4.665983    1.814702    -0.327600
H     -4.290550    1.008909    -1.874005
H     -4.915577    0.056166    -0.500551
C     -0.638208    -0.580199    5.028648
C     -1.249448    0.480821    4.356715
C     -1.003263    0.648821    3.001835
N     -0.191615    -0.178698    2.300774
C     0.399004    -1.205395    2.958543
C     0.201468    -1.436050    4.311986
H     -0.811975    -0.736430    6.088991
H     -1.908081    1.170740    4.873188
H     -1.455785    1.461340    2.447669
H     1.041436    -1.847290    2.368986
H     0.697357    -2.272294    4.792975
F     0.394452    0.362288    -1.387613
