25

Mn     -0.000011    0.000906    0.000034
O     0.000005    1.927554    -0.000004
H     0.556749    2.498486    -0.571691
H     -0.556742    2.498476    0.571681
O     1.975275    0.001716    -0.028436
H     2.570479    -0.001582    -0.805286
H     2.534169    0.001332    0.776298
O     0.000001    -1.925554    -0.000002
H     0.553365    -2.496556    -0.574790
H     -0.553366    -2.496542    0.574789
O     -1.975267    0.001720    0.028437
H     -2.570474    -0.001573    0.805278
H     -2.534172    0.001327    -0.776291
C     -0.072877    0.000649    2.053519
N     -0.057549    -0.000106    3.211423
C     -0.024349    -0.001213    4.652748
H     0.593759    -0.842234    4.982425
H     -1.046901    -0.108758    5.026497
H     0.407500    0.946814    4.988856
C     0.072865    0.000646    -2.053537
N     0.057550    -0.000109    -3.211432
C     0.024352    -0.001215    -4.652744
H     -0.593758    -0.842231    -4.982419
H     1.046898    -0.108759    -5.026503
H     -0.407501    0.946807    -4.988850
