9

Mn     -0.000006    -0.000005    -0.000004
Cl     -0.000370    2.326968    0.000135
Cl     2.326967    0.000363    0.000186
Cl     0.000357    -2.326977    -0.000130
Cl     -2.326979    -0.000373    -0.000176
C     -0.000003    -0.000002    2.518897
O     0.000021    0.000016    3.655157
C     0.000009    0.000006    -2.518902
O     0.000004    0.000003    -3.655163
