19

Mn     -0.014029    0.004029    -0.000745
S     0.468955    2.329508    0.251599
C     2.119089    2.415074    0.104773
H     2.589442    3.396559    0.223341
C     2.939538    1.270073    -0.205025
H     4.015697    1.404644    -0.354334
S     2.335773    -0.271935    -0.303242
S     -0.484796    -2.323206    -0.247206
C     -0.237943    -2.947007    1.269859
H     -0.360984    -4.026941    1.400905
C     0.092729    -2.128921    2.410899
H     0.179759    -2.593837    3.398239
S     0.396606    -0.502163    2.296728
S     -2.365470    0.287846    0.296984
C     -2.922072    0.692071    -1.212136
H     -3.988934    0.913919    -1.317968
C     -2.072643    0.722406    -2.377131
H     -2.512135    0.929159    -3.358284
S     -0.431106    0.498396    -2.300638
