17

Mn     0.063581    -0.021646    -0.027649
O     -0.190311    2.041760    -0.344298
H     -0.520829    2.385227    -1.192327
H     -0.436157    2.651423    0.372431
O     2.174034    0.129493    -0.297079
H     2.498489    0.049555    -1.212372
H     2.648407    0.873042    0.114185
O     0.457415    -2.076088    0.216927
H     -0.336077    -2.637489    0.143220
H     0.879495    -2.303360    1.065761
O     -2.011784    -0.562204    0.295450
H     -2.461805    -0.297083    1.116745
H     -2.645281    -0.477438    -0.438654
C     0.254859    0.338874    1.913898
N     0.335308    0.567135    3.057225
C     -0.245653    -0.279050    -1.968978
N     -0.463620    -0.382117    -3.112509
