29

Mn     0.000415    -0.000045    -0.005328
N     -0.261965    2.045255    0.348396
H     -1.252316    2.290473    0.450754
H     0.187476    2.401031    1.198708
H     0.077851    2.634250    -0.421688
N     2.040116    0.137478    0.434798
H     2.319285    1.078102    0.737046
H     2.344241    -0.479886    1.195909
H     2.648490    -0.071798    -0.364680
N     0.259112    -2.046618    -0.349813
H     1.250494    -2.301462    -0.412189
H     -0.116397    -2.632560    0.406002
H     -0.159818    -2.398352    -1.217136
N     -2.036922    -0.126542    -0.455353
H     -2.313014    -1.054912    -0.795854
H     -2.646605    0.049247    0.351275
H     -2.342722    0.520232    -1.190979
C     -0.306897    -0.263166    1.999716
N     -0.490120    -0.417585    3.134189
C     -0.719312    -0.614525    4.543575
H     -0.085890    -1.436041    4.889852
H     -1.776384    -0.854636    4.693073
H     -0.465272    0.311565    5.068894
C     0.307823    0.260345    -2.010285
N     0.491034    0.412640    -3.145037
C     0.719668    0.605424    -4.554986
H     0.247449    -0.219402    -5.098255
H     1.798576    0.608201    -4.736221
H     0.276463    1.559640    -4.854079
