17

Mn     -0.005964    0.134271    0.255550
S     0.403455    2.552496    0.591833
H     -0.832120    3.092895    0.502485
H     0.755709    2.919879    -0.658332
S     2.426717    0.053816    0.578314
H     2.478006    -0.515180    1.802353
H     2.841815    -1.043850    -0.087367
S     -0.424110    -2.247564    -0.239836
H     0.058489    -2.367252    -1.494131
H     0.617751    -2.883197    0.338642
S     -2.424129    0.531576    -0.214686
H     -2.518893    0.111079    -1.493046
H     -3.110340    -0.515306    0.294988
O     -0.184817    -0.121630    1.992587
H     -0.982859    -0.568667    2.333022
N     0.539872    0.497930    -2.822864
C     0.361418    0.368713    -1.673002
