25

Mn     0.014028    -0.006778    0.076279
N     -0.215432    2.311471    0.485061
H     -1.161041    2.600037    0.761980
H     0.378657    2.669617    1.242121
H     -0.001090    2.928941    -0.306118
N     2.089859    0.248371    -0.330931
H     2.331880    1.217062    -0.571199
H     2.674510    0.023125    0.483460
H     2.463501    -0.332578    -1.090949
N     0.355371    -2.340107    -0.193182
H     1.228958    -2.686248    0.221073
H     -0.364148    -2.948731    0.214600
H     0.413262    -2.654304    -1.168368
N     -2.078056    -0.351892    0.253230
H     -2.418378    -1.155182    -0.289364
H     -2.346742    -0.556771    1.224029
H     -2.669757    0.441112    -0.022655
N     0.302100    -0.238243    2.183758
H     -0.421507    0.215038    2.755838
H     0.309833    -1.223844    2.474053
H     1.184679    0.151165    2.537855
P     -0.438858    0.370039    -2.506273
H     0.702566    0.686145    -3.269091
H     -1.000583    -0.744254    -3.160053
H     -1.337085    1.423053    -2.768658
