29

Mn     0.003393    0.003875    0.003054
C     0.000853    3.318560    0.000109
N     0.003130    2.163000    0.002589
C     -0.002924    4.774146    -0.004177
H     -0.280471    5.141640    -0.997059
H     0.993824    5.147358    0.251017
H     -0.721158    5.145168    0.733678
C     3.318057    -0.003524    -0.000995
N     2.162507    0.001866    0.001180
C     4.773572    -0.012583    -0.003616
H     5.150470    1.015001    -0.004127
H     5.139607    -0.527359    -0.897496
H     5.142827    -0.527662    0.888763
C     -0.003113    -3.311073    -0.000379
N     0.001766    -2.155520    0.001377
C     -0.011481    -4.766595    -0.002496
H     1.016276    -5.142995    0.002555
H     -0.521470    -5.133228    -0.898871
H     -0.531055    -5.135745    0.887315
C     -3.311517    0.001093    -0.001226
N     -2.155960    0.003666    0.002326
C     -4.767097    -0.003166    -0.007304
H     -5.138613    -0.742869    0.708771
H     -5.133175    -0.252101    -1.008282
H     -5.141220    0.985498    0.276343
C     0.004339    0.002341    1.988391
N     0.004976    0.000538    3.156700
C     0.001824    0.004719    -1.982836
N     -0.000083    0.005214    -3.151139
