25

Mn     0.006102    0.031230    -0.017287
N     0.019858    2.414638    0.182966
H     -0.352852    2.801852    -0.692407
P     0.385475    3.639516    1.169424
H     0.867472    2.840541    2.264702
N     2.027041    0.232515    -0.386604
H     2.244614    1.233773    -0.315460
P     3.329133    -0.641642    -0.794356
H     2.668800    -1.908973    -0.821312
N     -0.006583    -2.352974    -0.216088
H     0.368945    -2.739309    0.658471
P     -0.374951    -3.578962    -1.200176
H     -0.861054    -2.781115    -2.294475
N     -2.015155    -0.170649    0.352086
H     -2.232244    -1.172050    0.281529
P     -3.317545    0.703043    0.759766
H     -2.657934    1.970778    0.785872
N     0.334277    -0.262495    2.020828
H     -0.556934    -0.569269    2.424181
P     1.430319    -0.062563    3.195906
H     2.511770    0.366835    2.365682
N     -0.322427    0.324551    -2.055208
H     0.568605    0.631496    -2.458819
P     -1.418638    0.123862    -3.230005
H     -2.499758    -0.305624    -2.399435
