52

Mn     -0.000567    0.001183    0.007535
C     -0.778144    4.803926    -0.111423
C     -0.410172    4.083053    -1.247178
C     -0.203595    2.713020    -1.144451
N     -0.342472    2.055505    0.031081
C     -0.705197    2.751661    1.130369
C     -0.930356    4.121417    1.096848
H     -0.947643    5.874952    -0.165860
H     -0.286408    4.567696    -2.209707
H     0.062059    2.097728    -1.993493
H     -0.818862    2.188273    2.047109
H     -1.223963    4.638215    2.004263
C     4.802866    0.778327    -0.115405
C     4.121315    0.930854    1.093351
C     2.751565    0.705833    1.128175
N     2.054275    0.342945    0.029648
C     2.710856    0.203723    -1.146413
C     4.080821    0.410120    -1.250341
H     5.873861    0.947710    -0.170850
H     4.638862    1.224588    2.000299
H     2.189124    0.819509    2.045435
H     2.094930    -0.061940    -1.994974
H     4.564573    0.286024    -2.213276
C     0.772387    -4.803249    -0.118579
C     0.921681    -4.123401    1.091511
C     0.698093    -2.753432    1.127073
N     0.339707    -2.054314    0.028255
C     0.203280    -2.709506    -1.148955
C     0.408524    -4.079562    -1.253871
H     0.940710    -5.874370    -0.174736
H     1.211574    -4.642370    1.998881
H     0.808816    -2.192302    2.045466
H     -0.059747    -2.092484    -1.997532
H     0.286746    -4.562112    -2.217708
C     -4.804510    -0.771734    -0.114181
C     -4.082107    -0.407511    -1.250171
C     -2.711931    -0.202332    -1.146574
N     -2.055628    -0.339181    0.029915
C     -2.753465    -0.698017    1.129397
C     -4.123469    -0.921555    1.095199
H     -5.875694    -0.940018    -0.169245
H     -4.565683    -0.285432    -2.213455
H     -2.095625    0.060925    -1.995621
H     -2.191245    -0.809368    2.047111
H     -4.641578    -1.211848    2.002931
N     0.000782    0.000010    2.670363
C     0.006688    -0.005720    3.832526
C     0.014579    -0.014787    5.290863
H     -0.890351    -0.502827    5.667485
H     0.890604    -0.560031    5.657223
H     0.049672    1.010877    5.672565
F     -0.000533    0.001322    -1.893634
