13

Mn     0.009814    0.013473    0.023756
N     0.321331    1.932565    0.311751
P     0.521801    3.389650    0.545265
N     1.928803    -0.274868    0.334998
P     3.386059    -0.507784    0.534983
N     -0.301876    -1.905255    -0.264319
P     -0.502612    -3.362296    -0.497972
N     -1.909121    0.301709    -0.287731
P     -3.366376    0.534393    -0.487986
N     -0.278076    -0.298015    1.942643
P     -0.510923    -0.497891    3.399932
N     0.297647    0.325156    -1.895204
P     0.530012    0.524990    -3.352569
