11

Mn     0.000169    0.000164    -0.002788
C     -0.109233    1.955088    0.304538
O     -0.168584    3.068309    0.483385
C     1.955020    -0.110685    0.304372
O     3.068212    -0.170901    0.483109
C     0.109664    -1.954679    -0.307481
O     0.169109    -3.068172    -0.484675
C     -1.954584    0.111120    -0.307360
O     -3.068041    0.171443    -0.484484
Cl     -0.346904    -0.346537    2.135199
Cl     0.345171    0.344849    -2.140254
