27

Mn     -0.002359    -0.001578    -0.005635
C     0.195263    1.951597    -0.329088
N     0.324041    3.090548    -0.516033
C     0.487189    4.488828    -0.739095
H     1.236466    4.643928    -1.519265
H     0.815422    4.964139    0.188674
H     -0.466442    4.917539    -1.056737
C     1.928004    -0.406298    -0.266444
N     3.057457    -0.629393    -0.419084
C     4.445084    -0.899203    -0.601042
H     4.563158    -1.867429    -1.093756
H     4.937781    -0.917509    0.374339
H     4.885984    -0.115771    -1.222293
C     -0.198631    -1.954476    0.320350
N     -0.323960    -3.093028    0.511932
C     -0.480405    -4.490170    0.745926
H     -1.427442    -4.824072    0.314790
H     -0.478678    -4.676556    1.822852
H     0.346180    -5.029482    0.276834
C     -1.932003    0.404052    0.258854
N     -3.060555    0.628846    0.415592
C     -4.446280    0.901599    0.607643
H     -4.585036    1.974310    0.762874
H     -4.802634    0.355135    1.484351
H     -5.001025    0.582274    -0.278176
Cl     0.357077    0.334624    2.179228
Cl     -0.360976    -0.337621    -2.188897
