37

Mn     0.075251    0.057931    -0.147754
N     -0.222896    2.177609    0.163646
H     -0.187095    2.233877    1.190819
H     -1.226836    2.272737    -0.037612
P     0.567402    3.740608    -0.447058
H     1.890583    3.371758    -0.084998
H     0.680962    3.323753    -1.801139
N     2.372490    0.287496    -0.485861
H     2.582276    1.239613    -0.166407
H     2.459283    0.374004    -1.505235
P     3.879281    -0.701237    0.012128
H     3.325517    -1.155683    1.245122
H     3.472529    -1.865657    -0.699968
N     0.375612    -2.063018    -0.460415
H     1.385334    -2.146128    -0.283796
H     0.316374    -2.120927    -1.486410
P     -0.380136    -3.634435    0.170935
H     -0.463260    -3.219022    1.527611
H     -1.716764    -3.282087    -0.156528
N     -2.218120    -0.188691    0.200413
H     -2.295385    -0.238588    1.223016
H     -2.409927    -1.157414    -0.079271
P     -3.753216    0.742151    -0.317754
H     -3.271468    2.005166    0.133947
H     -3.319206    0.949323    -1.658815
N     0.419380    -0.195928    2.131752
H     1.439724    -0.280843    2.207401
H     0.102271    -1.147781    2.346408
P     -0.072240    0.803322    3.631021
H     0.635614    1.964808    3.209959
H     -1.309421    1.247305    3.077436
N     -0.271514    0.318043    -2.422362
H     0.046085    1.269974    -2.635756
H     -1.292304    0.403798    -2.492931
P     0.215412    -0.678815    -3.924138
H     1.452936    -1.125421    -3.373693
H     -0.493129    -1.840257    -3.503890
