21

Mn     0.000252    0.002501    -0.001803
C     0.000243    1.982797    -0.002116
N     0.000235    3.154462    -0.002373
C     1.980546    0.002387    -0.005628
N     3.152205    0.002206    -0.009162
C     0.000262    -1.977822    -0.001751
N     0.000269    -3.149483    -0.001693
C     -1.980069    0.002404    0.001416
N     -3.151728    0.002236    0.004394
C     0.000643    0.001952    1.911832
N     -0.000246    0.000396    3.080925
C     -0.002395    -0.002673    4.493012
H     0.601204    -0.836777    4.865587
H     -1.026722    -0.110333    4.864541
H     0.416429    0.936292    4.869597
C     -0.000395    0.001911    -1.915694
N     0.000241    0.000350    -3.084771
C     0.001984    -0.002663    -4.496874
H     -0.601669    -0.836796    -4.869284
H     1.026215    -0.110243    -4.868678
H     -0.417011    0.936295    -4.873275
