25

Mn     0.000018    0.001703    0.000091
O     0.000010    2.036577    -0.000048
H     0.792619    2.612432    -0.011653
H     -0.792653    2.612352    0.011668
O     2.172217    0.000266    -0.061678
H     2.745587    0.002412    -0.854344
H     2.783748    -0.004849    0.702181
O     -0.000010    -2.033840    0.000041
H     0.790731    -2.609821    -0.052978
H     -0.790835    -2.609710    0.052944
O     -2.172153    0.000277    0.061679
H     -2.745504    0.002345    0.854356
H     -2.783679    -0.004757    -0.702189
C     0.033449    0.001155    2.063468
N     0.035780    0.000798    3.219342
C     0.037165    -0.000217    4.659343
H     0.649051    -0.840199    5.002805
H     -0.996185    -0.115583    5.002705
H     0.452156    0.951475    5.005610
C     -0.033477    0.001083    -2.063458
N     -0.035743    0.000717    -3.219373
C     -0.037166    -0.000241    -4.659442
H     -0.649126    -0.840276    -5.002726
H     0.996217    -0.115617    -5.002810
H     -0.452215    0.951520    -5.005534
