54

Mn     0.096246    -0.027668    0.107958
C     0.075679    0.013119    -1.963426
N     0.053047    0.066239    -3.123071
C     0.021013    0.154673    -4.557060
H     -0.460641    -0.739781    -4.960280
H     1.046698    0.223145    -4.928751
H     -0.534026    1.052853    -4.839853
O     0.110991    2.146608    0.064992
C     -1.000394    2.980625    -0.117734
C     -0.588527    4.263063    -0.278895
C     0.841777    4.262341    -0.211148
C     1.236747    2.979040    -0.012338
H     -1.960377    2.494646    -0.082955
H     -1.231438    5.120431    -0.427358
H     2.188186    2.487528    0.100908
H     1.494601    5.120597    -0.298302
O     2.594751    -0.032287    0.181892
C     3.397117    0.163220    1.303234
C     4.717311    0.058503    0.962648
C     4.764959    -0.220828    -0.433284
C     3.472208    -0.270211    -0.873411
H     2.871560    0.350463    2.226860
H     5.558720    0.168143    1.635026
H     3.021700    -0.444178    -1.837959
H     5.649259    -0.366408    -1.040598
O     0.160670    -2.184597    0.064547
C     1.285346    -2.988688    0.302805
C     0.990556    -4.280568    0.011319
C     -0.371244    -4.318998    -0.434195
C     -0.843364    -3.048535    -0.394188
H     2.154287    -2.481566    0.685376
H     1.664397    -5.122055    0.108358
H     -1.795857    -2.589051    -0.600289
H     -0.929328    -5.194957    -0.738136
O     -2.619188    -0.000722    0.009767
C     -3.446761    -0.176913    -1.088344
C     -4.763327    -0.034522    -0.728296
C     -4.775744    0.248928    0.661355
C     -3.466759    0.259016    1.075890
H     -2.953021    -0.389218    -2.023962
H     -5.616773    -0.125969    -1.387889
H     -2.999243    0.418415    2.035238
H     -5.641561    0.423320    1.287416
C     -0.442780    -0.046696    4.949328
C     -0.077034    1.123250    4.278468
C     0.062713    1.096387    2.897267
N     -0.138250    -0.027433    2.154760
C     -0.495926    -1.158958    2.820556
C     -0.657908    -1.204532    4.198880
H     -0.561321    -0.054127    6.029056
H     0.099115    2.049269    4.816395
H     0.346387    1.990875    2.359586
H     -0.661993    -2.044860    2.223862
H     -0.943638    -2.138278    4.671635
