13

Mn     -0.000011    -0.000012    -0.002466
C     -0.000010    2.285164    -0.002877
O     -0.000007    3.411456    -0.003154
C     2.285154    -0.000011    -0.002895
O     3.411446    -0.000008    -0.003184
C     -0.000012    -2.285189    -0.002960
O     -0.000012    -3.411481    -0.003307
C     -2.285181    -0.000014    -0.002945
O     -3.411473    -0.000013    -0.003278
C     0.000039    0.000039    1.949377
N     0.000093    0.000099    3.120629
C     -0.000010    -0.000009    -1.954333
N     -0.000016    -0.000020    -3.125589
