22

Mn     0.328871    0.127234    -0.119477
O     0.088382    2.126902    -0.241708
H     0.633712    2.672435    -0.849459
H     -0.791950    2.555239    -0.164783
O     2.250664    0.384879    -1.054639
H     2.490349    0.300214    -1.998891
H     3.083481    0.568127    -0.574688
O     0.733621    -1.806612    0.266957
H     1.450029    -2.306577    -0.182693
H     0.019150    -2.442872    0.488764
O     -1.566264    -0.108784    0.867767
H     -1.740711    -0.016368    1.826572
H     -2.432080    -0.282547    0.448292
O     1.186577    0.489183    1.603504
H     1.246951    1.373256    2.029039
H     1.501094    -0.204869    2.223760
C     -1.005813    -0.407599    -2.859572
N     -0.507600    -0.202696    -1.822584
C     -1.623289    -0.657396    -4.138083
H     -1.022281    -0.198009    -4.937767
H     -2.634440    -0.222569    -4.154360
H     -1.692226    -1.741660    -4.314184
