32

Mn     -0.075259    -0.069563    0.278207
C     0.367657    3.123501    -0.409884
N     0.236929    2.030389    -0.051860
C     0.528891    4.494946    -0.867187
H     0.168378    4.582324    -1.897724
H     1.586147    4.777783    -0.832425
H     -0.044785    5.172696    -0.226514
C     3.114078    -0.622135    -0.347704
N     2.027846    -0.409897    -0.008419
C     4.476657    -0.890694    -0.780416
H     4.970844    0.047157    -1.054934
H     4.461209    -1.554056    -1.651725
H     5.039275    -1.369568    0.027593
C     -0.571850    -3.306878    0.656553
N     -0.381041    -2.165165    0.645054
C     -0.812268    -4.741514    0.664718
H     0.142266    -5.277850    0.682185
H     -1.365900    -5.026428    -0.236272
H     -1.395433    -5.018589    1.548978
C     -3.319222    0.429022    0.590550
N     -2.171720    0.276518    0.600364
C     -4.761338    0.618602    0.571109
H     -5.229250    0.007731    1.350102
H     -5.157237    0.321154    -0.405776
H     -5.001253    1.672004    0.749424
C     0.433152    0.397255    3.414466
N     0.250529    0.229356    2.284866
C     0.662337    0.607929    4.834047
H     -0.293268    0.593813    5.369094
H     1.148661    1.576711    4.990890
H     1.306548    -0.186116    5.226722
F     -0.341308    -0.320217    -1.369441
