11

Mn     0.000083    0.004036    -0.000336
Cl     -0.397716    2.264578    0.427410
Cl     2.266112    0.311772    0.459715
Cl     0.398176    -2.257486    -0.428828
Cl     -2.265869    -0.305286    -0.458772
O     -0.217410    -0.227905    2.021145
H     0.738674    -0.309986    2.220665
H     -0.416911    0.715454    2.205252
O     0.216838    0.234837    -2.022073
H     -0.739828    0.314586    -2.220150
H     0.417852    -0.708598    -2.204028
