62

Mn     0.055882    0.029041    0.129011
C     0.170823    -0.057378    -1.904945
N     0.209839    -0.184889    -3.058656
C     0.234974    -0.369979    -4.483896
H     -0.388572    -1.231499    -4.737383
H     1.265429    -0.547408    -4.801572
H     -0.154751    0.529120    -4.967905
C     -0.584252    4.858050    -0.137303
C     -1.160065    4.088621    0.876608
C     -0.979731    2.714244    0.869363
N     -0.244328    2.065004    -0.073403
C     0.296962    2.824611    -1.061687
C     0.155649    4.203063    -1.124230
H     -0.714593    5.936137    -0.160977
H     -1.749627    4.542276    1.666600
H     -1.424227    2.103905    1.640249
H     0.853211    2.308411    -1.828864
H     0.617696    4.748461    -1.940015
C     4.979271    -0.072790    0.220901
C     4.205841    -0.708553    1.192533
C     2.821799    -0.637026    1.113436
N     2.164980    0.028764    0.124417
C     2.932550    0.623669    -0.824419
C     4.320375    0.599949    -0.810466
H     6.063729    -0.103062    0.261574
H     4.664339    -1.255214    2.009777
H     2.215501    -1.137628    1.853955
H     2.417009    1.130392    -1.626718
H     4.871120    1.100974    -1.600224
C     -0.217071    -4.816643    -0.486769
C     -1.302354    -4.133867    0.066308
C     -1.237443    -2.754365    0.208202
N     -0.150880    -2.025651    -0.155907
C     0.890571    -2.698370    -0.719506
C     0.896403    -4.075014    -0.888920
H     -0.240771    -5.895521    -0.608692
H     -2.197804    -4.659051    0.381260
H     -2.073000    -2.207240    0.617499
H     1.738882    -2.104593    -1.029487
H     1.763808    -4.551021    -1.335319
C     -4.906238    0.273255    0.161233
C     -4.212683    0.141218    1.365465
C     -2.825773    0.051875    1.343880
N     -2.098705    0.081277    0.199045
C     -2.784341    0.210518    -0.961384
C     -4.169632    0.306893    -1.022718
H     -5.989203    0.348427    0.146627
H     -4.735218    0.107324    2.315706
H     -2.272344    -0.047833    2.267014
H     -2.198145    0.238620    -1.868723
H     -4.655291    0.406439    -1.987872
C     0.614483    -0.041475    5.002770
C     1.009394    1.054417    4.232620
C     0.785951    1.033859    2.861257
N     0.169660    0.003473    2.228977
C     -0.191407    -1.063702    2.984054
C     0.012262    -1.123280    4.357371
H     0.784339    -0.057787    6.075277
H     1.493635    1.915953    4.681018
H     1.121989    1.854947    2.239796
H     -0.648312    -1.893695    2.462249
H     -0.294157    -2.007736    4.905348
