35

Mn     -0.068709    -0.057090    0.044643
C     0.406111    3.195768    -0.484136
N     0.235438    2.055994    -0.337154
C     0.619526    4.620618    -0.670692
H     0.248869    4.928007    -1.655807
H     1.689629    4.849185    -0.603758
H     0.083349    5.181948    0.103505
C     3.091589    -0.591828    -0.443711
N     1.954421    -0.399062    -0.305198
C     4.511405    -0.831950    -0.622513
H     5.025359    0.113290    -0.835108
H     4.669639    -1.523129    -1.459445
H     4.931340    -1.272499    0.289883
C     -0.562170    -3.319860    0.495764
N     -0.394632    -2.187181    0.297251
C     -0.771285    -4.736644    0.738649
H     0.187014    -5.267543    0.697621
H     -1.442907    -5.150619    -0.022880
H     -1.220475    -4.882367    1.728092
C     -3.240292    0.442265    0.510509
N     -2.110506    0.265354    0.305901
C     -4.652468    0.663270    0.760510
H     -4.970796    0.081281    1.633882
H     -5.238714    0.348687    -0.111666
H     -4.835139    1.727865    0.950352
C     0.438786    0.360559    3.105663
N     0.248889    0.203668    1.970949
C     0.676710    0.555887    4.521603
H     -0.245865    0.362973    5.083236
H     1.000890    1.588075    4.704195
H     1.458097    -0.133784    4.864576
N     -0.386916    -0.266921    -1.934583
H     -1.261596    0.187370    -2.216938
H     0.376881    0.149876    -2.476333
H     -0.450808    -1.261088    -2.177694
