33

Mn     -0.222594    -0.225826    0.205640
C     0.103431    2.522076    -1.249698
N     -0.012767    1.511574    -0.688650
C     0.246839    3.782528    -1.950573
H     -0.088153    3.671534    -2.989686
H     1.295202    4.104031    -1.935903
H     -0.368581    4.549042    -1.460919
C     2.566258    -1.030634    -0.943815
N     1.537740    -0.728719    -0.493282
C     3.848118    -1.409906    -1.499796
H     4.389538    -0.516969    -1.836630
H     3.703241    -2.093849    -2.345484
H     4.446824    -1.916658    -0.730228
C     -0.514693    -3.023210    1.548640
N     -0.404060    -1.985206    1.037233
C     -0.656817    -4.315758    2.186304
H     0.316744    -4.821409    2.223431
H     -1.369093    -4.934419    1.626549
H     -1.023966    -4.182845    3.212931
C     -3.095077    0.649967    1.031084
N     -2.022741    0.326942    0.719341
C     -4.430409    1.048711    1.423839
H     -4.682088    0.591904    2.390885
H     -5.156571    0.709606    0.673747
H     -4.483500    2.140051    1.520765
C     1.079020    0.997885    2.764979
N     0.602709    0.550840    1.805588
C     1.674149    1.558094    3.963669
H     0.944163    1.538804    4.783083
H     1.973804    2.597226    3.780838
H     2.553767    0.971964    4.255141
C     -1.122696    -1.079360    -1.398132
O     -1.626990    -1.557797    -2.283522
