63

Mn     -0.000437    0.001642    -0.000432
C     1.341370    2.438283    0.136891
O     0.169361    1.886488    0.329020
C     2.436124    1.343043    -0.135341
O     3.625299    1.604141    -0.163240
O     1.883524    0.171713    -0.330292
O     1.603866    3.627121    0.167224
C     -1.342989    -2.434570    -0.142329
O     -0.170105    -1.883285    -0.330358
C     -2.437272    -1.339384    0.131951
O     -3.626589    -1.599941    0.158964
O     -1.884225    -0.168720    0.329717
O     -1.606509    -3.623048    -0.177167
C     0.221334    -0.217415    1.951519
N     0.308081    -0.300499    3.117278
C     0.383146    -0.370659    4.492877
C     -0.444799    -1.257467    5.193374
C     -0.368998    -1.308818    6.579747
C     0.517235    -0.494889    7.308591
C     0.548171    -0.581767    8.844817
C     -0.845326    -0.207045    9.404573
C     0.902815    -2.024767    9.275172
C     1.586747    0.371548    9.465095
C     1.336458    0.377971    6.578058
C     1.278351    0.447478    5.187044
H     -1.136536    -1.887107    4.643515
H     -1.022192    -2.000488    7.103539
H     -1.120259    0.813393    9.115205
H     -0.844728    -0.263735    10.500339
H     -1.625549    -0.880073    9.034503
H     1.889158    -2.314924    8.895861
H     0.174926    -2.752547    8.901853
H     0.921225    -2.102660    10.369530
H     2.604172    0.138879    9.130676
H     1.567486    0.277298    10.556989
H     1.376536    1.418734    9.220388
H     2.038509    1.026105    7.089587
H     1.913999    1.130926    4.633725
C     -0.221995    0.220603    -1.952581
N     -0.308251    0.303167    -3.118400
C     -0.383004    0.372114    -4.494086
C     0.446416    1.257006    -5.195254
C     0.370843    1.307107    -6.581685
C     -0.516450    0.493803    -7.309942
C     -0.547359    0.579500    -8.846235
C     -0.902103    2.022214    -9.277487
C     0.846094    0.204457    -9.405874
C     -1.585881    -0.374348    -9.465770
C     -1.337069    -0.377158    -6.578716
C     -1.279276    -0.445390    -5.187623
H     1.138998    1.886145    -4.645883
H     1.025095    1.997341    -7.106047
H     -1.888437    2.312547    -8.898287
H     -0.920573    2.099454    -10.371892
H     -0.174209    2.750203    -8.904571
H     1.121245    -0.815650    -9.115555
H     1.626322    0.877961    -9.036696
H     0.845242    0.260059    -10.501695
H     -1.375831    -1.421283    -9.219842
H     -1.566319    -0.281275    -10.557763
H     -2.603384    -0.141222    -9.131912
H     -2.040008    -1.024759    -7.089708
H     -1.916005    -1.127393    -4.633764
