27

Mn     -0.104014    -0.096771    -0.002833
N     -0.407235    1.951401    0.291999
H     -1.395148    2.225121    0.327961
H     0.009857    2.351459    1.140534
H     -0.017142    2.499433    -0.485084
N     1.949786    0.049382    0.381478
H     2.257554    0.994765    0.640677
H     2.331200    -0.560683    1.114194
H     2.489840    -0.173253    -0.462535
N     0.198461    -2.149314    -0.270792
H     1.034948    -2.541315    0.176295
H     -0.570901    -2.755630    0.042702
H     0.303162    -2.353872    -1.270466
N     -2.137709    -0.248253    -0.463669
H     -2.401129    -1.173333    -0.823517
H     -2.802084    -0.066236    0.297911
H     -2.396565    0.397470    -1.218200
N     -0.398869    -0.302363    2.041679
H     -1.230567    0.175254    2.408776
H     -0.510424    -1.283014    2.329081
H     0.377725    0.044645    2.616958
C     0.408651    0.357991    -3.087347
N     0.210100    0.175007    -1.950921
C     0.653548    0.581441    -4.495968
H     1.733172    0.558936    -4.698744
H     0.243542    1.553677    -4.801655
H     0.166624    -0.209931    -5.085254
