24

Mn     -0.004113    -0.028748    0.116470
N     -0.230912    2.040200    0.347698
H     -1.207897    2.322927    0.495554
H     0.279520    2.425506    1.153734
H     0.082933    2.572567    -0.474937
N     2.084319    0.183688    0.282035
H     2.413615    1.146716    0.137244
H     2.450230    -0.086289    1.205198
H     2.608224    -0.381084    -0.400275
N     0.294792    -2.091918    -0.135451
H     1.092584    -2.468824    0.393686
H     -0.504054    -2.676255    0.144719
H     0.480171    -2.325139    -1.121559
N     -2.039769    -0.216737    -0.369865
H     -2.266169    -1.075957    -0.887508
H     -2.650031    -0.235869    0.458844
H     -2.394050    0.542989    -0.965698
N     -0.395974    -0.300715    2.403232
H     -1.172656    0.247984    2.792210
H     -0.618847    -1.267540    2.668729
H     0.396675    -0.060876    3.011165
S     0.547809    0.132107    -2.801516
H     -0.514203    0.408489    -3.590651
H     1.277271    1.196250    -3.205145
