21
03/24/2023 16:57, XYZ structure generated by mol3D Class, molSimplify
Mn     0.141658    0.122399    -0.078177
C     0.508615    0.445372    2.107590
O     0.695314    0.616317    3.200971
O     0.418572    2.072473    -0.349189
H     1.297082    2.473507    -0.527405
H     -0.273307    2.764625    -0.432685
O     2.277182    -0.120161    -0.315891
H     2.749258    -0.243355    -1.164851
H     2.962073    -0.228439    0.377099
O     -0.097840    -1.817869    0.278759
H     0.562205    -2.531669    0.134116
H     -0.980779    -2.226715    0.414649
O     -1.960812    0.383599    0.339238
H     -2.393828    0.564725    1.199870
H     -2.674776    0.452189    -0.327414
C     -0.193079    -0.161871    -2.056980
N     -0.383503    -0.323348    -3.185238
C     -0.622625    -0.523738    -4.591883
H     -1.406806    -1.281175    -4.701491
H     0.311471    -0.868809    -5.050406
H     -0.936083    0.431932    -5.026321
