27

Mn     0.001877    -0.001001    -0.009987
C     0.205091    1.967740    0.326601
N     0.331740    3.106051    0.518642
C     0.486971    4.502800    0.755502
H     1.456096    4.829208    0.370239
H     0.434823    4.692608    1.830507
H     -0.311845    5.047177    0.245847
C     1.952922    -0.396308    0.248883
N     3.083202    -0.611691    0.406191
C     4.470232    -0.873409    0.603715
H     4.820375    -1.565726    -0.165876
H     4.614712    -1.315831    1.592497
H     5.028003    0.063721    0.534940
C     -0.201717    -1.969884    -0.346342
N     -0.329145    -3.108173    -0.537977
C     -0.488012    -4.505262    -0.771006
H     -1.208843    -4.656553    -1.578235
H     -0.851283    -4.982303    0.142619
H     0.475186    -4.936779    -1.054166
C     -1.949480    0.395059    -0.266259
N     -3.080069    0.612600    -0.418353
C     -4.468061    0.876702    -0.605720
H     -4.725347    1.821700    -0.121069
H     -5.052253    0.066588    -0.162328
H     -4.679849    0.941397    -1.675880
F     -0.273299    -0.274905    1.708506
F     0.276935    0.272751    -1.728268
