24

Mn     -0.051553    0.025890    -0.100526
P     -0.530845    2.455926    0.257847
H     -1.422081    2.824246    1.284994
H     0.558384    3.318952    0.483033
H     -1.142897    3.007809    -0.885927
P     2.296474    0.626945    -0.613992
H     3.011094    1.415391    0.308584
H     3.160334    -0.473809    -0.784013
H     2.511953    1.344861    -1.808396
P     0.054988    -2.386615    0.305965
H     1.346575    -2.923001    0.133146
H     -0.312623    -2.875428    1.574675
H     -0.728124    -3.183873    -0.549840
P     -2.477147    -0.291250    0.380054
H     -3.086195    -1.511880    0.026117
H     -2.846649    -0.174162    1.734282
H     -3.337830    0.637723    -0.238942
P     0.804599    0.014191    2.197310
H     1.329186    1.235581    2.661654
H     -0.153098    -0.303965    3.180058
H     1.852030    -0.879596    2.495661
S     -0.394556    -0.311682    -2.370730
H     -1.032850    -1.384099    -2.894012
H     0.565496    -0.178131    -3.315328
