42

Mn     -0.000654    0.001540    0.293238
C     0.023745    2.372620    0.020816
N     0.033437    3.516223    -0.184749
C     0.043621    4.930290    -0.434682
H     0.861876    5.161903    -1.120903
H     0.189257    5.456906    0.511740
H     -0.912485    5.217318    -0.879457
C     2.087561    -0.006095    0.212079
N     3.242711    -0.001834    0.153772
C     4.676019    0.006480    0.073224
H     4.994550    -0.826480    -0.559224
H     5.084847    -0.104204    1.080827
H     4.994822    0.957043    -0.362853
C     -0.023997    -2.369780    0.020393
N     -0.032719    -3.513427    -0.185105
C     -0.041328    -4.927538    -0.434826
H     -0.860663    -5.160565    -1.119287
H     -0.184251    -5.454178    0.511998
H     0.914329    -5.213144    -0.881484
C     -2.088649    0.007602    0.210316
N     -3.243731    0.001587    0.150656
C     -4.677035    -0.008488    0.069382
H     -4.974305    -0.651977    -0.763077
H     -5.023956    1.014327    -0.100098
H     -5.078755    -0.394535    1.009767
C     -0.000413    0.001189    -1.818472
N     -0.000463    -0.000255    -2.975584
C     0.000070    -0.003395    -4.411527
H     -0.625383    -0.829269    -4.760197
H     1.027705    -0.134430    -4.760436
H     -0.400615    0.950296    -4.764656
C     0.000069    0.000441    5.101945
C     -0.175440    1.190482    4.390505
C     -0.174671    1.159074    3.003888
N     -0.000799    0.001153    2.311695
C     0.173058    -1.157217    3.003196
C     0.174487    -1.189359    4.389798
H     0.000967    0.000218    6.188277
H     -0.314041    2.138668    4.899641
H     -0.316830    2.062961    2.427203
H     0.314865    -2.060871    2.426007
H     0.312583    -2.137969    4.898346
