11

Mn     0.000605    0.000101    0.003512
C     -0.385664    2.257682    -0.324796
O     -0.579040    3.355736    -0.489583
C     2.239682    0.339672    -0.379193
O     3.337419    0.511458    -0.567656
C     0.385200    -2.258666    0.331328
O     0.577770    -3.356926    0.495727
C     -2.239709    -0.339197    0.385532
O     -3.337862    -0.509640    0.572800
Cl     0.329633    0.351978    2.148298
Cl     -0.328038    -0.352194    -2.141708
