13

Mn     -0.000138    -0.000138    -0.001867
C     -0.082427    1.961285    -0.001999
O     -0.130458    3.089141    -0.002090
C     1.961273    -0.082056    -0.002002
O     3.089140    -0.129863    -0.002095
C     0.082619    -1.961421    -0.002058
O     0.131080    -3.089263    -0.002194
C     -1.961408    0.082248    -0.002054
O     -3.089261    0.130483    -0.002187
C     -0.000104    -0.000100    1.908607
N     -0.000096    -0.000089    3.089128
C     -0.000109    -0.000110    -1.912429
N     -0.000112    -0.000116    -3.092940
