25
03/24/2023 16:57, XYZ structure generated by mol3D Class, molSimplify
Mn     -0.014017    0.008339    0.009801
N     -0.270310    2.085515    0.287009
H     -1.258409    2.369529    0.311149
H     0.133323    2.428410    1.168369
H     0.164161    2.664699    -0.442981
N     2.337634    0.303172    0.298885
H     2.649154    1.280353    0.247780
H     2.712869    -0.016275    1.200042
H     2.932666    -0.176987    -0.387159
N     0.404467    -2.055138    -0.168819
H     1.098808    -2.390199    0.511438
H     -0.424984    -2.650091    -0.045694
H     0.787232    -2.321520    -1.084987
N     -2.310177    -0.421234    -0.421012
H     -2.502935    -1.122664    -1.145985
H     -2.844337    -0.755255    0.389626
H     -2.841159    0.399239    -0.735725
N     -0.357094    -0.233431    2.079690
H     -1.169577    0.291650    2.429208
H     -0.540278    -1.210101    2.341567
H     0.435245    0.057561    2.667172
N     0.193537    0.321179    -2.070587
H     -0.368604    1.101824    -2.433814
H     1.162465    0.522926    -2.348764
H     -0.093122    -0.485679    -2.639251
