43

Mn     -0.188199    0.004695    -0.052311
O     -0.136191    2.151319    0.223206
C     0.859464    2.913434    0.112596
C     0.617590    4.393664    0.344532
C     2.168217    2.471311    -0.212493
C     2.507160    1.139705    -0.426902
O     1.714511    0.126153    -0.360261
C     3.935106    0.769410    -0.766539
H     -0.116204    4.758698    -0.383421
H     1.529326    4.991391    0.263238
H     0.180239    4.533969    1.339226
H     4.587883    1.643708    -0.829967
H     3.954559    0.234414    -1.722846
H     4.324839    0.083184    -0.005885
H     2.955174    3.211533    -0.293980
O     0.000882    -2.153669    -0.071443
C     0.445678    -2.889028    0.849389
C     0.666056    -4.351924    0.512488
C     0.727423    -2.429757    2.160745
C     0.519014    -1.119083    2.580995
O     0.106145    -0.138595    1.856252
C     0.776992    -0.739330    4.023603
H     1.381064    -4.425108    -0.314866
H     -0.276022    -4.789270    0.162860
H     1.038164    -4.932237    1.361043
H     1.131796    -1.584447    4.618894
H     -0.146065    -0.348567    4.466786
H     1.518175    0.067038    4.060342
H     1.089764    -3.143565    2.890871
O     -2.080827    -0.223875    0.279189
C     -3.005599    -0.265973    -0.602838
C     -4.390603    -0.512416    -0.053030
C     -2.816808    -0.097152    -1.983731
C     -1.572554    0.158955    -2.574441
O     -0.460926    0.251844    -1.943128
C     -1.464295    0.354238    -4.067749
H     -4.655959    0.301484    0.631292
H     -4.384741    -1.437379    0.533765
H     -5.146064    -0.584043    -0.838776
H     -2.433406    0.294058    -4.567992
H     -0.793946    -0.407357    -4.481850
H     -1.008768    1.329534    -4.271732
H     -3.685553    -0.153553    -2.627546
