18

Mn     -0.008722    0.012970    0.057157
C     -0.391034    0.384114    -2.378721
O     -0.565532    0.532725    -3.478657
O     0.321051    1.893694    0.352362
H     1.171237    2.351082    0.149093
H     -0.397444    2.567265    0.405003
O     1.936570    -0.282385    -0.319559
H     2.426506    -0.229646    -1.172928
H     2.591080    -0.451428    0.396845
O     -0.303877    -1.881345    -0.191278
H     0.377226    -2.500735    -0.544603
H     -1.193156    -2.300144    -0.269478
O     -1.968181    0.315408    0.344873
H     -2.397805    0.279015    1.230504
H     -2.667902    0.497868    -0.323774
O     0.304976    -0.332498    2.096991
H     0.485471    0.343949    2.784814
H     0.279536    -1.199911    2.555682
