19

Mn     -0.037597    -0.050183    -0.030317
O     -0.219427    2.041364    0.372727
H     -0.588078    2.747738    -0.189046
H     -0.407735    2.287586    1.299405
O     2.042491    0.262315    0.169442
H     2.304721    1.195296    0.295747
H     2.586030    -0.252893    0.797489
O     0.301096    -2.078188    -0.576454
H     -0.511467    -2.609252    -0.686386
H     0.961415    -2.669147    -0.165909
O     -2.087071    -0.585040    -0.359069
H     -2.719029    -0.179448    -0.982050
H     -2.594102    -0.783690    0.453408
N     -0.461175    -0.604558    3.000307
C     -0.290951    -0.404929    1.859985
P     0.329361    0.384389    -2.595787
H     0.441740    1.695468    -3.098299
H     -0.594106    -0.196756    -3.485915
H     1.543866    -0.200065    -2.997669
