39

Mn     -0.001187    0.001579    -0.268721
O     -0.004535    0.004462    1.784697
H     0.538026    0.579405    2.355557
H     -0.554033    -0.560853    2.358681
C     -0.076600    2.023301    -0.119230
N     -0.144979    3.170402    0.028472
C     -0.230097    4.593710    0.215902
H     0.618379    5.067327    -0.284392
H     -0.198263    4.806377    1.287955
H     -1.170540    4.951372    -0.210340
C     2.018104    0.174914    -0.165032
N     3.174739    0.214980    -0.108125
C     4.611584    0.243262    -0.055197
H     4.999215    -0.558409    -0.689093
H     4.927097    0.089447    0.980092
H     4.960978    1.214322    -0.414480
C     0.076190    -2.019932    -0.115572
N     0.146137    -3.166782    0.032970
C     0.232422    -4.589844    0.220328
H     -0.616083    -5.063498    -0.279743
H     0.201156    -4.802612    1.292320
H     1.172869    -4.946982    -0.206280
C     -2.019048    -0.173797    -0.168919
N     -3.175605    -0.217076    -0.112662
C     -4.612551    -0.250376    -0.061947
H     -4.978289    -0.857097    -0.894573
H     -4.990430    0.771849    -0.143517
H     -4.921849    -0.694499    0.887703
C     0.001509    -0.000110    -4.993294
C     0.789607    0.916880    -4.281141
C     0.767628    0.892005    -2.900628
N     0.000823    0.000543    -2.194914
C     -0.765671    -0.891189    -2.900627
C     -0.786633    -0.917068    -4.281107
H     0.002377    -0.000903    -6.079936
H     1.412273    1.641823    -4.795655
H     1.361470    1.583468    -2.318757
H     -1.357995    -1.583851    -2.318598
H     -1.407944    -1.643194    -4.795615
