33

Mn     -0.000201    0.001784    0.029364
C     0.232244    1.980103    -0.212234
N     0.380508    3.118272    -0.379480
C     0.562520    4.528191    -0.592698
H     1.307439    4.665608    -1.382756
H     0.917934    4.981788    0.336903
H     -0.392688    4.966170    -0.893692
C     1.959359    -0.380003    -0.174329
N     3.091824    -0.583930    -0.320221
C     4.494538    -0.837136    -0.505535
H     4.619231    -1.820118    -0.966812
H     4.987808    -0.806768    0.470578
H     4.905596    -0.057082    -1.153728
C     -0.232752    -1.976617    0.269558
N     -0.380855    -3.115088    0.434768
C     -0.563845    -4.525570    0.642757
H     -1.540739    -4.818694    0.249789
H     -0.506566    -4.730555    1.715967
H     0.234021    -5.061156    0.119199
C     -1.959884    0.382479    0.235569
N     -3.092156    0.585956    0.383616
C     -4.494906    0.838230    0.570493
H     -4.643709    1.910595    0.722029
H     -4.832242    0.282847    1.451412
H     -5.035683    0.495575    -0.316053
P     0.495407    0.423041    2.417448
H     1.638668    1.209362    2.645258
H     -0.500283    1.103440    3.141549
H     0.741046    -0.717003    3.204158
P     -0.499077    -0.421602    -2.357694
H     0.495741    -1.104119    -3.080988
H     -1.642975    -1.207367    -2.583843
H     -0.743736    0.717777    -3.145705
