47

Mn     -0.000024    0.000086    0.353589
C     -0.717432    5.010308    -0.187004
C     -0.491422    4.168162    -1.275692
C     -0.303667    2.807898    -1.042814
N     -0.328851    2.275426    0.191669
C     -0.542133    3.086597    1.240728
C     -0.742758    4.458078    1.092922
H     -0.869089    6.076635    -0.333940
H     -0.460886    4.552656    -2.290728
H     -0.125438    2.092106    -1.837984
H     -0.539041    2.587166    2.206711
H     -0.913483    5.074778    1.970083
C     5.010334    0.717791    -0.185839
C     4.457700    0.743764    1.093898
C     3.086168    0.543216    1.241373
N     2.275379    0.329461    0.192140
C     2.808181    0.303699    -1.042190
C     4.168526    0.491292    -1.274701
H     6.076714    0.869334    -0.332513
H     5.074133    0.914911    1.971164
H     2.586393    0.540514    2.207184
H     2.092568    0.125193    -1.837466
H     4.553390    0.460255    -2.289581
C     0.716708    -5.010236    -0.186236
C     0.742210    -4.457761    1.093568
C     0.542096    -3.086167    1.241108
N     0.329150    -2.275126    0.191892
C     0.303788    -2.807834    -1.042496
C     0.491055    -4.168198    -1.275101
H     0.867963    -6.076647    -0.332975
H     0.912649    -5.074344    1.970865
H     0.539165    -2.586547    2.206997
H     0.125793    -2.092095    -1.837768
H     0.460411    -4.552906    -2.290052
C     -5.009921    -0.718546    -0.186434
C     -4.167875    -0.492488    -1.275207
C     -2.807682    -0.304213    -1.042455
N     -2.275169    -0.328945    0.192052
C     -3.086218    -0.542300    1.241184
C     -4.457649    -0.743409    1.093463
H     -6.076198    -0.870601    -0.333325
H     -4.552432    -0.462339    -2.290230
H     -2.091974    -0.125941    -1.837688
H     -2.586747    -0.538893    2.207146
H     -5.074240    -0.914134    1.970699
S     -0.000167    0.000291    2.576993
F     0.000022    0.000045    -1.577006
