22

Mn     -0.065718    -0.073785    0.032620
P     -0.542793    2.302061    -0.299723
H     -0.703721    3.180001    0.791557
H     0.430783    2.991640    -1.047966
H     -1.699601    2.584877    -1.049684
P     2.338223    0.130616    -0.349600
H     2.787954    1.382102    -0.815029
H     3.253002    -0.098874    0.698028
H     2.841737    -0.721218    -1.350026
P     0.417402    -2.449143    0.347709
H     1.221159    -3.022366    -0.655252
H     1.060761    -2.908756    1.514427
H     -0.700175    -3.305614    0.308897
P     -2.469387    -0.297868    0.431994
H     -2.976067    -1.611994    0.405212
H     -3.059524    0.184367    1.617777
H     -3.274908    0.313996    -0.546226
P     0.299918    0.372137    2.456633
H     1.424697    1.151404    2.795199
H     -0.706010    1.066269    3.156737
H     0.498088    -0.731128    3.310315
Cl     -0.392848    -0.415215    -2.076462
