19

Mn     -0.000078    0.000220    -0.009060
N     -0.256055    2.189658    0.372927
H     -1.234907    2.402680    0.568276
H     0.276040    2.521883    1.178500
H     -0.001476    2.754111    -0.438856
N     2.203890    0.301450    -0.310503
H     2.426306    1.297444    -0.304650
H     2.760995    -0.125068    0.431184
H     2.535988    -0.053120    -1.208384
N     0.256388    -2.189732    -0.390306
H     1.237627    -2.404597    -0.571061
H     -0.011693    -2.755890    0.415923
H     -0.264328    -2.518667    -1.204645
N     -2.204055    -0.301479    0.289695
H     -2.430137    -1.296278    0.260845
H     -2.531401    0.033039    1.196994
H     -2.762953    0.143737    -0.439578
F     0.273290    -0.270409    1.690087
F     -0.273442    0.271027    -1.708192
