17

Mn     0.002166    0.001368    -0.000216
C     0.255308    1.957633    0.335986
N     0.422959    3.100653    0.533213
C     1.947740    -0.348619    0.305233
N     3.090576    -0.531561    0.489592
C     -0.249386    -1.955723    -0.336393
N     -0.419215    -3.098578    -0.532860
C     -1.944462    0.349538    -0.304088
N     -3.087275    0.533838    -0.487022
N     -0.215152    -0.202197    2.051413
H     -1.114959    0.170704    2.347846
H     -0.158830    -1.186686    2.305925
H     0.531706    0.309909    2.514700
N     0.211074    0.204230    -2.051967
H     0.070325    1.176898    -2.318439
H     1.142600    -0.090523    -2.338545
H     -0.483523    -0.377684    -2.514376
