19

Mn     -0.000110    -0.000150    -0.000013
N     -0.000543    1.993807    -0.000295
C     -0.001151    3.146480    -0.000695
H     -0.001766    4.233286    -0.001050
N     2.242456    0.000249    -0.000275
C     3.396662    0.002579    0.000710
H     4.480034    0.004380    0.001326
N     0.000426    -1.994090    -0.000286
C     0.002209    -3.146761    0.000320
H     0.003513    -4.233566    0.000593
N     -2.242559    -0.000449    -0.000056
C     -3.396767    -0.001114    0.001065
H     -4.480142    -0.001777    0.001793
N     -0.000031    0.000065    1.994500
C     -0.000113    0.000209    3.147175
H     -0.000182    0.000394    4.233976
N     -0.000123    -0.000647    -1.994517
C     -0.000247    -0.001127    -3.147189
H     -0.000353    -0.001602    -4.233989
