19

Mn     -0.029693    0.045102    -0.010642
S     -0.293049    2.535286    0.346462
C     1.258917    3.075428    0.164513
H     1.419483    4.152586    0.284673
C     2.420337    2.250649    -0.140256
H     3.386670    2.756283    -0.245288
S     2.418685    0.610386    -0.346318
S     0.351945    -2.446380    -0.305923
C     0.687861    -2.966079    1.223124
H     0.902412    -4.037054    1.318984
C     0.736778    -2.175078    2.460249
H     0.968119    -2.733949    3.371874
S     0.482354    -0.557942    2.595021
S     -2.519347    -0.384702    0.277991
C     -3.121985    -0.203862    -1.246345
H     -4.205362    -0.340872    -1.344197
C     -2.389279    0.122125    -2.478103
H     -2.994631    0.184340    -3.387261
S     -0.775921    0.398783    -2.610432
