37

Mn     0.015652    0.007193    -0.052021
C     0.136496    1.961998    0.347762
N     0.233997    3.097927    0.551591
C     0.361442    4.507147    0.797491
H     1.384534    4.811442    0.558755
H     0.153179    4.699475    1.853632
H     -0.350739    5.042807    0.165060
C     1.932561    -0.446562    0.284966
N     3.053708    -0.681567    0.456114
C     4.446203    -0.964853    0.664354
H     4.789735    -1.647392    -0.116785
H     4.566287    -1.423864    1.649769
H     5.003757    -0.025053    0.621030
C     -0.251859    -1.964624    -0.368467
N     -0.420616    -3.094560    -0.558930
C     -0.628710    -4.494651    -0.800439
H     -1.389713    -4.610538    -1.576000
H     -0.960868    -4.963519    0.130298
H     0.316628    -4.938840    -1.124463
C     -1.953193    0.336597    -0.321154
N     -3.087072    0.508611    -0.482981
C     -4.492365    0.722799    -0.686297
H     -4.775065    1.675477    -0.231659
H     -5.041424    -0.098152    -0.215935
H     -4.693325    0.737756    -1.760959
C     -0.188397    -0.198416    1.911598
N     -0.329195    -0.334397    3.053190
C     -0.506811    -0.505424    4.467982
H     -0.273483    -1.540284    4.731057
H     -1.543366    -0.269617    4.723561
H     0.171396    0.177857    4.988062
C     0.552109    0.496943    -3.105422
N     0.336026    0.301841    -1.979902
C     0.816936    0.736197    -4.509893
H     1.870625    0.527735    -4.732716
H     0.585173    1.776807    -4.765665
H     0.190410    0.070462    -5.118844
