54

Mn     -0.029978    -0.025854    0.127386
C     -0.108060    0.006865    -1.931068
N     -0.104027    0.061237    -3.090156
C     -0.086950    0.130256    -4.527634
H     -0.645733    -0.719635    -4.927786
H     0.950262    0.090611    -4.869855
H     -0.548864    1.069536    -4.841786
O     -0.030540    2.006607    0.012585
C     -1.094469    2.812600    -0.386151
C     -0.641672    4.065219    -0.651063
C     0.784027    4.071776    -0.432527
C     1.139416    2.837032    -0.036651
H     -2.065631    2.349946    -0.396318
H     -1.252804    4.907144    -0.952517
H     2.055975    2.348498    0.242894
H     1.450784    4.916344    -0.552370
O     2.120382    -0.064087    0.157628
C     2.995219    0.037940    1.245445
C     4.268985    -0.196321    0.834833
C     4.225061    -0.472028    -0.572547
C     2.931431    -0.395628    -0.955862
H     2.545996    0.278080    2.192642
H     5.150034    -0.178844    1.464234
H     2.412805    -0.514095    -1.890437
H     5.067033    -0.695715    -1.215353
O     0.059666    -2.034019    0.054826
C     1.152938    -2.850529    0.342861
C     0.857713    -4.131468    0.003040
C     -0.482213    -4.150489    -0.535000
C     -0.946847    -2.891015    -0.505035
H     2.004168    -2.369409    0.792429
H     1.517124    -4.981685    0.121900
H     -1.873700    -2.403386    -0.749566
H     -1.021942    -5.018520    -0.890836
O     -2.147763    0.011101    0.158759
C     -3.072210    -0.152126    -0.877790
C     -4.327429    0.092295    -0.420639
C     -4.219446    0.438846    0.968352
C     -2.911142    0.386150    1.297364
H     -2.667965    -0.425896    -1.837118
H     -5.236850    0.031859    -1.005024
H     -2.347073    0.553850    2.196052
H     -5.032194    0.690505    1.638331
C     -0.139216    0.059543    5.014113
C     0.109117    1.230602    4.293383
C     0.179639    1.174911    2.906827
N     0.021782    0.018836    2.207487
C     -0.215456    -1.114741    2.918113
C     -0.299741    -1.131960    4.305593
H     -0.208635    0.078210    6.098005
H     0.245588    2.183466    4.794344
H     0.360006    2.076398    2.335845
H     -0.356499    -2.026059    2.354011
H     -0.490489    -2.070658    4.815469
