13

Mn     -0.000062    -0.000085    0.005471
N     -0.244072    1.777913    0.949372
N     -0.364855    2.760770    1.449290
N     1.991005    0.281146    -0.253191
N     3.075876    0.457655    -0.403183
N     0.243912    -1.778122    -0.938452
N     0.364654    -2.761085    -1.438168
N     -1.991094    -0.281402    0.264053
N     -3.075964    -0.457980    0.413982
N     0.414167    -0.815754    1.815936
N     0.623899    -1.282761    2.800126
N     -0.413918    0.816112    -1.804929
N     -0.623540    1.283214    -2.789096
