35

Mn     -0.065527    -0.074900    0.010513
C     -0.568443    2.985493    -0.437872
N     -0.393925    1.847855    -0.280355
C     -0.788755    4.405583    -0.635062
H     -1.273160    4.580024    -1.603519
H     0.167568    4.941219    -0.603864
H     -1.438923    4.790488    0.161417
C     2.993250    0.371975    -0.498100
N     1.860153    0.193338    -0.315546
C     4.408522    0.592484    -0.727312
H     4.586442    1.645323    -0.978911
H     4.760759    -0.041776    -1.549451
H     4.971662    0.346513    0.182265
C     0.488507    -3.128817    0.439426
N     0.285890    -2.001328    0.248811
C     0.741181    -4.537787    0.676313
H     1.817064    -4.739869    0.605996
H     0.208306    -5.146126    -0.064150
H     0.394396    -4.811337    1.681072
C     -3.135813    -0.467079    0.505870
N     -2.004509    -0.320772    0.288437
C     -4.549319    -0.653417    0.775685
H     -4.678973    -1.413543    1.556705
H     -5.063533    -0.988348    -0.133515
H     -4.993061    0.289306    1.117238
C     0.406590    0.456281    3.073655
N     0.241443    0.273127    1.938883
C     0.613905    0.687970    4.491253
H     -0.347915    0.666739    5.017654
H     1.076667    1.671953    4.640138
H     1.273257    -0.083254    4.906101
N     -0.445516    -0.522269    -1.945652
H     -0.783496    0.295568    -2.461542
H     0.393302    -0.855049    -2.428698
H     -1.156899    -1.250470    -2.048391
