9

Mn     0.000176    0.000661    0.000172
Cl     0.342576    2.266147    0.360938
Cl     2.259607    -0.381630    0.355117
Cl     -0.342019    -2.265216    -0.360722
Cl     -2.259322    0.382537    -0.355034
C     -0.309060    -0.294408    1.863034
O     -0.492876    -0.480125    2.972705
C     0.308884    0.294189    -1.863048
O     0.492034    0.477844    -2.973162
