55

Mn     0.028381    0.145075    -0.012244
O     0.071439    2.484377    -0.028880
C     -1.021094    3.359443    -0.074061
C     -0.585060    4.647221    -0.057507
C     0.844204    4.608986    -0.001084
C     1.211056    3.299727    0.015088
H     -1.992924    2.891161    -0.101646
H     -1.210451    5.530280    -0.082422
H     2.155752    2.778652    0.035064
H     1.515738    5.457773    0.020581
O     2.095212    -0.005885    -0.002982
C     2.937641    -0.305353    1.093680
C     4.226229    -0.265192    0.690979
C     4.236991    0.076107    -0.708165
C     2.954521    0.225672    -1.102357
H     2.439766    -0.472302    2.033685
H     5.090678    -0.451883    1.315389
H     2.462782    0.478338    -2.026033
H     5.109940    0.195461    -1.337264
O     0.041045    -2.533787    0.005872
C     0.979855    -3.338391    0.636941
C     0.642076    -4.665536    0.507150
C     -0.563121    -4.709576    -0.233896
C     -0.899182    -3.407867    -0.523585
H     1.811665    -2.831704    1.103461
H     1.203388    -5.503977    0.900987
H     -1.722801    -2.958977    -1.057567
H     -1.121035    -5.589771    -0.527468
O     -2.055712    0.041224    -0.027162
C     -2.930719    0.356864    1.036289
C     -4.207569    0.147185    0.644397
C     -4.174361    -0.317197    -0.716297
C     -2.878568    -0.371470    -1.098673
H     -2.458114    0.701661    1.940669
H     -5.090217    0.306197    1.250696
H     -2.367177    -0.612724    -2.015161
H     -5.027944    -0.567382    -1.333246
O     0.002302    0.120112    2.134966
C     -0.505957    -0.898022    2.967887
C     -0.387220    -0.519781    4.262212
C     0.216946    0.784635    4.278697
C     0.442572    1.146456    2.995174
H     -0.908519    -1.761674    2.464493
H     -0.696167    -1.098729    5.123078
H     0.859193    2.014285    2.509407
H     0.452599    1.376609    5.153215
O     0.030931    0.088594    -2.163717
C     -0.520734    1.067583    -3.013419
C     -0.519033    0.613247    -4.287126
C     0.049471    -0.707454    -4.274078
C     0.369930    -1.002887    -2.992610
H     -0.820162    1.984717    -2.532458
H     -0.874477    1.155150    -5.153864
H     0.847091    -1.836553    -2.504116
H     0.209948    -1.348974    -5.131030
