22

Mn     0.009118    0.071624    0.060888
N     0.148140    2.125665    -0.377727
H     -0.131653    2.675192    0.440868
H     -0.466699    2.437153    -1.136400
H     1.077060    2.475500    -0.626468
N     2.071440    -0.100009    -0.332072
H     2.602950    -0.072348    0.543502
H     2.494956    0.611296    -0.933604
H     2.327252    -0.995767    -0.756691
N     -0.212453    -1.993780    0.392391
H     -1.096577    -2.424827    0.112757
H     -0.161812    -2.094132    1.410845
H     0.518036    -2.603498    0.015916
N     -2.069938    0.200325    0.342633
H     -2.188033    0.201572    1.360752
H     -2.659935    -0.555052    -0.013997
H     -2.511316    1.063869    0.014495
O     0.197326    0.276256    1.771248
H     0.901417    0.857111    2.127188
S     -0.496035    -0.243573    -2.466053
H     -0.991065    -1.475994    -2.707374
H     0.637825    -0.436556    -3.173022
