13

Mn     0.017214    0.015774    0.032194
N     0.334159    1.976738    -0.248935
P     0.556418    3.433738    -0.446997
N     2.232005    -0.309011    0.387004
P     3.690717    -0.508457    0.608463
N     -0.299985    -1.944944    0.313322
P     -0.522863    -3.401898    0.511044
N     -2.197396    0.339973    -0.322125
P     -3.656553    0.538551    -0.541433
N     -0.264048    0.331073    1.993258
P     -0.464481    0.554276    3.449802
N     0.298518    -0.299339    -1.928868
P     0.498729    -0.523062    -3.385362
