41

Mn     -0.001306    0.000657    0.000846
O     0.245449    1.864523    -0.311232
C     1.328882    2.512726    -0.079226
C     1.211441    4.013802    -0.122514
C     2.573317    1.891680    0.131517
C     2.792820    0.517602    -0.063921
O     1.848809    -0.321422    -0.303399
C     4.186845    -0.051878    -0.077845
H     0.402331    4.339542    0.539594
H     0.941824    4.329075    -1.137363
H     2.141291    4.508711    0.165090
H     4.946678    0.707448    0.117517
H     4.382125    -0.513488    -1.052278
H     4.266074    -0.846338    0.672704
H     3.438207    2.527605    0.277030
O     -0.248031    -1.863220    0.312646
C     -1.331346    -2.511305    0.079662
C     -1.214029    -4.012384    0.122550
C     -2.575583    -1.890094    -0.131849
C     -2.795171    -0.516102    0.064180
O     -1.851240    0.322637    0.304957
C     -4.189102    0.053593    0.077154
H     -0.404948    -4.337993    -0.539663
H     -2.143890    -4.507153    -0.165251
H     -0.944440    -4.327932    1.137318
H     -4.949016    -0.705787    -0.117686
H     -4.267924    0.847263    -0.674292
H     -4.384552    0.516319    1.051011
H     -3.440395    -2.525925    -0.278244
C     0.362689    0.295759    1.969784
N     0.507703    0.422496    3.116363
C     0.681757    0.573778    4.522529
H     1.253906    -0.273274    4.909072
H     -0.297871    0.606672    5.005841
H     1.220286    1.503361    4.723129
C     -0.363988    -0.295168    -1.968264
N     -0.506294    -0.423734    -3.114980
C     -0.674044    -0.578450    -4.521585
H     -1.440708    -1.333179    -4.713999
H     0.272827    -0.896489    -4.964933
H     -0.981414    0.376109    -4.955843
