37

Mn     -0.004189    -0.000352    0.000449
N     -0.454246    1.977565    0.083383
H     -0.450995    2.449628    -0.819341
P     -0.369491    3.050054    1.312288
H     -1.021008    2.544718    2.443410
H     0.902733    3.421794    1.800032
H     -0.983645    4.278089    1.016744
N     1.959270    0.416963    0.574255
H     2.204031    1.388483    0.378980
P     3.248229    -0.537862    0.269311
H     3.234624    -1.691654    1.061500
H     3.432990    -1.042910    -1.035642
H     4.467106    0.097297    0.559644
N     0.445749    -1.978306    -0.082877
H     0.442289    -2.450907    0.819562
P     0.362307    -3.050124    -1.312438
H     1.015387    -2.544606    -2.442580
H     0.975631    -4.278485    -1.016562
H     -0.909409    -3.421250    -1.801960
N     -1.967614    -0.417210    -0.574114
H     -2.212282    -1.389081    -0.380477
P     -3.256552    0.536939    -0.266775
H     -3.244990    1.691196    -1.058353
H     -4.475525    -0.098775    -0.555459
H     -3.439356    1.041154    1.038757
N     -0.404327    -0.248435    1.957056
H     -1.240907    -0.781704    2.193048
P     0.659417    -0.238915    3.195376
H     1.272010    1.001308    3.413309
H     0.027828    -0.552156    4.409997
H     1.748063    -1.130572    3.141891
N     0.395570    0.247370    -1.956250
H     1.232759    0.779380    -2.192903
P     -0.668878    0.238564    -3.193979
H     -1.281925    -1.001320    -3.412625
H     -1.757173    1.130545    -3.139453
H     -0.037647    0.552352    -4.408650
