37

Mn     0.000123    -0.000075    -0.012429
C     0.427630    3.054858    0.487235
N     0.258595    1.918786    0.318796
C     0.637123    4.474539    0.698664
H     0.555085    5.012593    -0.252966
H     1.630197    4.645663    1.131248
H     -0.121750    4.858504    1.392802
C     3.046940    -0.518582    0.449368
N     1.910942    -0.336128    0.295716
C     4.466476    -0.746231    0.642878
H     4.971437    0.206635    0.844372
H     4.900495    -1.204929    -0.253044
H     4.619830    -1.413674    1.500531
C     -0.429431    -3.054029    -0.515427
N     -0.258944    -1.918619    -0.343929
C     -0.641569    -4.473019    -0.728694
H     0.315147    -5.005327    -0.658612
H     -1.081138    -4.643968    -1.718159
H     -1.319473    -4.865234    0.040170
C     -3.046254    0.514967    -0.480546
N     -1.910551    0.335288    -0.321502
C     -4.465855    0.737142    -0.680063
H     -5.038458    -0.013482    -0.120085
H     -4.712704    0.652949    -1.744913
H     -4.742773    1.734746    -0.318505
C     -0.257315    -0.225940    1.980511
N     -0.408948    -0.359556    3.120224
C     -0.598513    -0.525948    4.534053
H     -0.160932    -1.479477    4.839780
H     -1.670439    -0.514319    4.748481
H     -0.104716    0.300103    5.053149
C     0.258892    0.227260    -2.005045
N     0.412396    0.363459    -3.144203
C     0.604273    0.534333    -4.557179
H     -0.067250    -0.147392    -5.086421
H     1.643716    0.301437    -4.802335
H     0.374689    1.569482    -4.822001
