33

Mn     -0.012644    -0.005527    0.001521
C     0.178394    1.984786    -0.297202
N     0.302554    3.123826    -0.467677
C     0.456585    4.540245    -0.681243
H     1.434069    4.721705    -1.135928
H     0.390789    5.047311    0.285499
H     -0.342391    4.883689    -1.343627
C     1.938085    -0.441748    0.306941
N     3.058796    -0.678637    0.479525
C     4.452283    -0.974934    0.694491
H     4.715869    -1.858474    0.106858
H     4.606136    -1.170950    1.759307
H     5.047487    -0.114639    0.377493
C     -0.299698    -1.989508    0.282900
N     -0.495035    -3.121478    0.439132
C     -0.740615    -4.524979    0.631896
H     -1.489105    -4.851933    -0.095578
H     -1.118714    -4.672474    1.648637
H     0.196676    -5.070337    0.494143
C     -1.986029    0.334040    -0.293448
N     -3.122840    0.495101    -0.453400
C     -4.533341    0.692695    -0.649531
H     -4.777175    1.736797    -0.435896
H     -5.077354    0.023156    0.022665
H     -4.774231    0.454242    -1.690550
N     -0.025663    0.486788    2.011474
H     -0.858975    1.024240    2.272948
H     -0.019010    -0.354885    2.598757
H     0.777342    1.045626    2.317491
N     0.472100    -0.159481    -2.008869
H     -0.317911    0.112338    -2.604098
H     1.262091    0.422209    -2.305188
H     0.716943    -1.122163    -2.263524
