19

Mn     0.000632    0.000673    -0.000910
C     -0.074827    2.017145    0.072559
N     -0.101907    3.170164    0.098320
H     -0.124533    4.188071    0.119976
C     2.017076    -0.075493    0.072406
N     3.170089    -0.102957    0.098040
H     4.187990    -0.125912    0.119572
C     0.071912    -2.016630    -0.071899
N     0.096733    -3.169717    -0.096718
H     0.117481    -4.187678    -0.117668
C     -2.016674    0.072533    -0.071584
N     -3.169759    0.097686    -0.096197
H     -4.187718    0.118719    -0.116959
C     0.077643    0.077575    2.015593
N     0.105541    0.105463    3.168535
H     0.128999    0.128915    4.186378
C     -0.074499    -0.074279    -2.017762
N     -0.101413    -0.101125    -3.170762
H     -0.124006    -0.123661    -4.188658
